SOL 111
CEND
TITLE = MD Nastran job created on 23-Mar-09 at 16:13:15
ECHO = NONE
RESVEC = NO
$ Direct Text Input for Global Case Control Data
SUBCASE 1
   SUBTITLE=Default
   METHOD = 1
   SPC = 2
   DLOAD = 1001
   LOAD = 3001                             
   FREQ = 1005
   SDAMPING = 1004                              
   SET 1 = 18   
   DISPLACEMENT(SORT2,PHASE,PUNCH) = 1
BEGIN BULK
PARAM    POST    0
PARAM   PRTMAXIM YES
$PARAM   COUPMASS 1
EIGRL    1                       20      0
$ Direct Text Input for Bulk Data
$ Elements and Element Properties for region : flansch
PSHELL   3       2      .009     2               2
$ Pset: "flansch" will be imported as: "pshell.3"
CQUAD4   1       3       1       2       36      35
CQUAD4   2       3       2       3       37      36
CQUAD4   3       3       3       4       38      37
CQUAD4   4       3       4       5       39      38
CQUAD4   5       3       5       6       40      39
CQUAD4   6       3       6       7       41      40
CQUAD4   7       3       7       8       42      41
CQUAD4   8       3       8       9       43      42
CQUAD4   9       3       9       10      44      43
CQUAD4   10      3       10      11      45      44
CQUAD4   11      3       11      12      46      45
CQUAD4   12      3       12      13      47      46
CQUAD4   13      3       13      14      48      47
CQUAD4   14      3       14      15      49      48
CQUAD4   15      3       15      16      50      49
CQUAD4   16      3       16      17      51      50
CQUAD4   17      3       17      18      52      51
CQUAD4   18      3       18      19      53      52
CQUAD4   19      3       19      20      54      53
CQUAD4   20      3       20      21      55      54
$ ... 180 like lines cut
$ Elements and Element Properties for region : steg
PSHELL   4       2      .005     2               2
$ Pset: "steg" will be imported as: "pshell.4"
CQUAD4   133     4       68      206     210     67
CQUAD4   134     4       206     207     211     210
CQUAD4   135     4       207     170     169     211
CQUAD4   136     4       67      210     214     66
CQUAD4   137     4       210     211     215     214
CQUAD4   138     4       211     169     168     215
CQUAD4   139     4       66      214     218     65
CQUAD4   140     4       214     215     219     218
CQUAD4   141     4       215     168     167     219
CQUAD4   142     4       65      218     222     64
CQUAD4   143     4       218     219     223     222
CQUAD4   144     4       219     167     166     223
CQUAD4   145     4       64      222     226     63
CQUAD4   146     4       222     223     227     226
CQUAD4   147     4       223     166     165     227
CQUAD4   148     4       63      226     230     62
CQUAD4   149     4       226     227     231     230
CQUAD4   150     4       227     165     164     231
CQUAD4   151     4       62      230     234     61
CQUAD4   152     4       230     231     235     234
$ ... 121 like lines cut
$ Referenced Material Records
$ Material Record : steel
$ Description of Material : Date: 27-Jan-09           Time: 17:39:17
MAT1     2      9.0+7           .3      2000.
$ Nodes of the Entire Model
GRID     1               0.      0.      0.
GRID     2              .106061  0.      0.
GRID     3              .212121  0.      0.
GRID     4              .318182  0.      0.
GRID     5              .424242  0.      0.
GRID     6              .530303  0.      0.
GRID     7              .636364  0.      0.
GRID     8              .742424  0.      0.
GRID     9              .848485  0.      0.
GRID     10             .954546  0.      0.
GRID     11             1.06061  0.      0.
GRID     12             1.16667  0.      0.
GRID     13             1.27273  0.      0.
GRID     14             1.37879  0.      0.
GRID     15             1.48485  0.      0.
GRID     16             1.59091  0.      0.
GRID     17             1.69697  0.      0.
GRID     18             1.80303  0.      0.
GRID     19             1.90909  0.      0.
GRID     20             2.01515  0.      0.
$ ... 372 like lines cut
$
$<-----><------><------><------><------><------><------><------><------><------>$ Loads for Load Case : Default        
SPCADD   2       3      4       5       6                                                                                                                    
$ Displacement Constraints of Load Set : simple_support1                                                                                                     
SPC1     3       12356     374     410                                                                                                                       
$ Displacement Constraints of Load Set : simple_support3                                                                                                     
SPC1     4       12345     78      180    94      196                                                                                                        
$ Displacement Constraints of Load Set : simple_support4                                                                                                     
SPC1     5       123456    365     353    414     415                                                                                                        
SPC1     6       123456    389     401    377     341   
$ Referenced Coordinate Frames  
RLOAD1   1001   1002                    1003
DAREA    1002   34      2       1.0  
TABLED1  1003                                                           +TAB901
+TAB901  0.0    1.0     10.0    1.0     ENDT       
$<-----><------><------><------><------><------><------><------><------><------
FREQ1   1005    2.      0.05    160
TABDMP1 1004    CRIT                                                    +TABD1            
+TABD1  6.123-1 0.0126  9.3201-1 0.0112 9.3493-1  0.0111 1.352+0 0.0111 +TABD2
+TABD2  1.944+0 0.0123  2.2287+0 0.0132 3.0328+0  0.0163 3.279+0 0.0171 +TABD3
+TABD3  ENDT
ENDDATA 3ebf17e9
