*********************************************************************
** Abaqus/FROMNASTRAN Version 6.7-1
**
** reading bulk data from: test.bdf
**  creating ABAQUS input: test.inp
** writing diagnostics to: test.log
**
**  environment variables: fromnastran_wtmass_fixup <not present>
**                       : fromnastran_distribution <not present>
**                       : fromnastran_pbar_zero_reset <not present>
**                       : fromnastran_loadcases <not present>
**                       : fromnastran_surface_based_coupling <not present>
**                       : fromnastran_cquad4 <not present>
**                       : fromnastran_chexa <not present>
**                       : fromnastran_ctetra <not present>
**                       : fromnastran_cbar <not present>
**                       : fromnastran_beam_offset_coupling <not present>
**                       : fromnastran_beam_orientation_vector <not present>
**
** command line arguments: wtmass_fixup <not present>
**                       : distribution <not present>
**                       : pbar_zero_reset <not present, using default=1e-20
**                       : loadcases <not present>
**                       : surface_based_coupling <not present>
**                       : cquad4 <not present>
**                       : chexa <not present>
**                       : ctetra <not present>
**                       : cbar <not present>
**                       : beam_offset_coupling <not present>
**                       : beam_orientation_vector <not present>
**
** PARAM,WTMASS will NOT be used to adjust mass and density
** *DISTRIBUTION will be used for shell offsets, orientations, and thicknesses
** Zero PBAR/PBEAM cross sectional parameters will be reset to 1e-20
** SUBCASEs for SOL 101 and 108 will be General STEPs
** Rigid links will be modeled using non-surface-based constraints
** Beam orientations will use a third node on the element connectivity
** Beam offsets will be modeled using rigid couplings and extra nodes
**
** --------------------------------
** NASTRAN Case Control entities processed:
**      keyword   number
** ------------   ------
**   BEGIN BULK        1
** DISPLACEMENT        1
**         LOAD        1
**          SPC        1
**      SUBCASE        1
** --------------------------------
** NASTRAN Bulk Data processed:
**      keyword   number
** ------------   ------
**       CTETRA    18865
**      ENDDATA        1
**         GRAV        1
**         GRID     4286
**         LOAD        1
**         MAT1        3
**       PSOLID        3
**         SPC1        1
**       SPCADD        1
**
** ---------------------------------------------------
** ---- *NODE ----------------------------------------
** ---------------------------------------------------
**
** following nodes were defined in the global coordinate system
**
*SYSTEM
**
*NODE, SYSTEM=R
       1,     -17.344,          0.,     -12.066
       2,     -17.344,          0.,      12.934
       3,     -17.344,          0.,    -8.94099
       4,     -17.344,          0.,    -5.81599
       5,     -17.344,          0.,    -2.69099
       6,     -17.344,          0.,    0.434008
       7,     -17.344,          0.,     3.55901
       8,     -17.344,          0.,     6.68401
       9,     -17.344,          0.,     9.80901
      10,      17.656,          0.,      12.934
      11,    -14.1622,          0.,      12.934
      12,    -10.9804,          0.,      12.934
      13,    -7.79855,          0.,      12.934
      14,    -4.61674,          0.,      12.934
      15,    -1.43492,          0.,      12.934
      16,      1.7469,          0.,      12.934
      17,     4.92872,          0.,      12.934
      18,     8.11054,          0.,      12.934
      19,     11.2924,          0.,      12.934
      20,     14.4742,          0.,      12.934
** ... 4266 like lines cut
**
** ---------------------------------------------------
** ---- *MATERIAL ------------------------------------
** ---------------------------------------------------
**
** material data from MAT1 with MID = 1
**
*MATERIAL, NAME=MAT_MID_1
*ELASTIC
7e+06 , 0.3
*DENSITY
8e-06,
**
** material data from MAT1 with MID = 2
**
*MATERIAL, NAME=MAT_MID_2
*ELASTIC
7e+06 , 0.3
*DENSITY
8e-06,
**
** material data from MAT1 with MID = 3
**
*MATERIAL, NAME=MAT_MID_3
*ELASTIC
7e+06 , 0.3
*DENSITY
8e-06,
**
** ---------------------------------------------------
** ---- SOLID elements -------------------------------
** ---------------------------------------------------
**
** following elements refer to a PSOLID entry with PID = 1
**
*SOLID SECTION, ELSET=PSOLID_1, MATERIAL=MAT_MID_1
**
*ELEMENT, TYPE=C3D4, ELSET=PSOLID_1
**
13, 3955, 3954, 3953, 3952
14, 3951, 3950, 3952, 3955
15, 3949, 3951, 3950, 3952
18, 3955, 3944, 3943, 3942
19, 3955, 3954, 3944, 3941
20, 3955, 3951, 3950, 3943
58, 1871, 1870, 1457, 1177
69, 3850, 3849, 3848, 1568
70, 3850, 1569, 3847, 900
71, 3850, 3846, 1569, 884
72, 3850, 3849, 3847, 3845
90, 3955, 3810, 3943, 3950
91, 3951, 3949, 906, 3809
92, 3951, 3949, 3943, 906
93, 3955, 3951, 3944, 3954
94, 3955, 3951, 3943, 3944
96, 3808, 1522, 3807, 3806
97, 3808, 3806, 3805, 1257
98, 3804, 1045, 3803, 3802
106, 3845, 3787, 1680, 3786
** ... 6791 like lines cut
**
** following elements refer to a PSOLID entry with PID = 2
**
*SOLID SECTION, ELSET=PSOLID_2, MATERIAL=MAT_MID_2
**
*ELEMENT, TYPE=C3D4, ELSET=PSOLID_2
**
2, 3976, 3975, 3974, 3973
9, 1787, 3962, 3961, 3960
16, 3955, 3948, 3947, 3946
17, 3948, 3947, 3945, 3955
21, 3955, 3942, 3947, 3944
23, 3936, 3935, 3934, 3933
24, 3936, 3932, 3931, 3930
25, 3936, 3929, 3928, 3927
26, 3936, 3926, 3934, 3925
46, 3887, 3886, 3885, 3884
48, 3883, 3887, 3884, 3886
50, 3880, 3879, 3878, 3887
51, 3877, 3880, 3879, 3878
52, 3879, 3887, 3886, 3885
53, 3887, 3876, 3884, 3885
55, 3887, 3880, 3875, 3878
63, 3864, 3863, 3862, 3861
64, 3864, 3945, 3860, 3859
65, 3864, 3858, 3975, 3857
75, 3841, 3840, 3862, 3839
** ... 5087 like lines cut
**
** following elements refer to a PSOLID entry with PID = 3
**
*SOLID SECTION, ELSET=PSOLID_3, MATERIAL=MAT_MID_3
**
*ELEMENT, TYPE=C3D4, ELSET=PSOLID_3
**
1, 3978, 3977, 4076, 4030
3, 3972, 4076, 3977, 4077
4, 3977, 3971, 3970, 3972
5, 3977, 3972, 4077, 4078
6, 3969, 3977, 3968, 3967
7, 3977, 3967, 4078, 4030
8, 3966, 3965, 3964, 3963
10, 3966, 3959, 749, 750
11, 3966, 3958, 3957, 3956
12, 3966, 3959, 750, 3964
22, 3940, 3939, 3938, 3937
27, 3924, 3923, 3922, 3921
28, 3924, 3920, 3919, 3918
29, 3917, 3916, 3923, 3924
30, 3915, 3963, 3957, 3956
31, 3921, 3914, 3913, 3924
32, 3924, 3913, 3912, 3920
33, 3911, 3910, 3909, 3908
34, 3907, 3906, 3905, 3904
35, 3907, 3905, 3903, 3902
** ... 6927 like lines cut
**
** elset ALL_3DSOLID contains 18865 elements in 3 elsets
*ELSET, ELSET=ALL_3DSOLID
PSOLID_1,
PSOLID_2,
PSOLID_3,
**
** elset ALL_MASSIVE_ELEMENTS contains all 18865 elements that can have mass
*ELSET, ELSET=ALL_MASSIVE_ELEMENTS
ALL_3DSOLID,

*STEP
*STATIC
*NODE PRINT
U,
*BOUNDARY, OP=NEW
    1777, 1,6, 0.
     616, 1,6, 0.
    1779, 1,6, 0.
    4120, 1,6, 0.
    4276, 1,6, 0.
    4286, 1,6, 0.
*DLOAD, OP=NEW
ALL_MASSIVE_ELEMENTS, GRAV, 3.5e+08, 0., 1., 0.
*END STEP
