!********************************************************
!
!
! 	DESIGN OF A SUSPENSION ARM
!
! 	MINIMIZATION OF TOTAL WEIGHT/VOLUME
!	SUBJECT TO FATIGUE LIFE CONSTRAINT
!
!
!********************************************************

/NOPR 			! Suppresses the expanded interpreted input data listing

!********************************************************
!
!
! 	DEFINITION OF VARIABLES
!
!
!********************************************************

! thicknesses
*dim,thk,array,7 	! creates array with 7 elements to store thicknesses
thk(1) 	=   1.0000   ! thickness of part 1 of suspension arm
thk(2) 	=   2.0000   ! thickness of part 2 of suspension arm
thk(3) 	=   3.0000   ! thickness of part 3 of suspension arm
thk(4) 	=   4.0000   ! thickness of part 4 of suspension arm
thk(5) 	=   5.0000   ! thickness of part 5 of suspension arm
thk(6) 	=   6.0000   ! thickness of part 6 of suspension arm
thk(7) 	=   7.0000   ! thickness of part 7 of suspension arm

! properties of the material
YoungsM = 200000	! Young's modulus
Poisson = 0.3		! Poisson's ratio

! loadings
*dim,forces_x,array,2
forces_x(1) 	= 769.23
forces_x(2) 	= -538.46
*dim,forces_y,array,2
forces_y(1) 	= 1538.46
forces_y(2) 	= -769.23

!********************************************************
!
!
! 	PREPROCESSING
!
!
!********************************************************

/PREP7

! Definition of Elements
ET,1,PLANE42, , , 3, , , , , 		! ID of element; type of element; 6 parameters dependent on particular element;
*DO,I,1,7
R,I,thk(I)             			! constants associated with element: ID of element; thickness of the beam
*ENDDO

! Definition of Material Properties
MP,EX,1,YoungsM 			! property to be set (Young's modulus); number of material; value of property
MP,PRXY,Poisson 			! property to be set (Poisson's ratio); number of material; value of property
MP,DENS,1,7.8E-6
MAT,1 					! turn on pointer to material 1

!==================================================
! Nodes
!==================================================
N, 1, 334.2536, 318.0343, 0.000000
N, 2, 334.2536, 328.0005, 0.000000
N, 3, 334.2536, 321.3564, 0.000000
N, 4, 334.2536, 324.6784, 0.000000
N, 5, 328.5062, 328.5477, 0.000000
N, 6, 331.3799, 328.2741, 0.000000
N, 7, 304.2984, 328.9478, 0.000000
N, 8, 325.8164, 328.5922, 0.000000
N, 9, 323.1267, 328.6366, 0.000000
N, 10, 320.4369, 328.6811, 0.000000
N, 11, 317.7472, 328.7255, 0.000000
N, 12, 315.0574, 328.7700, 0.000000
N, 13, 312.3677, 328.8145, 0.000000
N, 14, 309.6779, 328.8589, 0.000000
N, 15, 306.9882, 328.9034, 0.000000
N, 16, 284.4921, 327.7474, 0.000000
N, 17, 301.4689, 328.7763, 0.000000
N, 18, 298.6395, 328.6048, 0.000000
N, 19, 295.8100, 328.4334, 0.000000
N, 20, 292.9805, 328.2619, 0.000000
! ... 3960 like lines cut
!==================================================
! End of Nodes
!==================================================




!==================================================
! Part 1: Elements
!==================================================
TYPE,1 			! turn on type 1 elements
MAT,1			! turn on material no. 1
REAL,1 			! turn on constants associated with group 1
EN, 3138, 3536, 3546, 3420, 3413
EN, 3139, 3537, 3547, 3546, 3536
EN, 3140, 3538, 3548, 3547, 3537
EN, 3141, 3539, 3549, 3548, 3538
EN, 3142, 3540, 3550, 3549, 3539
EN, 3143, 3541, 3551, 3550, 3540
EN, 3144, 3542, 3552, 3551, 3541
EN, 3145, 3543, 3553, 3552, 3542
EN, 3146, 3544, 3554, 3553, 3543
EN, 3147, 3545, 3555, 3554, 3544
EN, 3148, 3514, 3555, 3545, 3512
EN, 3149, 3535, 3556, 3534, 3525
EN, 3150, 339, 3557, 3556, 3535
EN, 3151, 337, 3558, 3557, 339
EN, 3152, 338, 3559, 3558, 337
EN, 3153, 335, 3560, 3559, 338
EN, 3154, 336, 3561, 3560, 335
EN, 3155, 332, 3562, 3561, 336
EN, 3156, 334, 3563, 3562, 332
EN, 3157, 333, 3564, 3563, 334
! ... 112 like lines cut
!==================================================
! Part 2: Elements
!==================================================
TYPE,1 			! turn on type 1 elements
MAT,1			! turn on material no. 1
REAL,2 			! turn on constants associated with group 2
EN, 2972, 3345, 3421, 3010, 3005
EN, 2973, 3346, 3422, 3421, 3345
EN, 2974, 3347, 3423, 3422, 3346
EN, 2975, 3348, 3424, 3423, 3347
EN, 2976, 3349, 3425, 3424, 3348
EN, 2977, 3350, 3426, 3425, 3349
EN, 2978, 3351, 3427, 3426, 3350
EN, 2979, 3344, 3428, 3427, 3351
EN, 2980, 3353, 3429, 3428, 3344
EN, 2981, 3354, 3430, 3429, 3353
EN, 2982, 3355, 3431, 3430, 3354
EN, 2983, 3356, 3432, 3431, 3355
EN, 2984, 3357, 3433, 3432, 3356
EN, 2985, 3358, 3434, 3433, 3357
EN, 2986, 3359, 3435, 3434, 3358
EN, 2987, 3360, 3436, 3435, 3359
EN, 2988, 3352, 3437, 3436, 3360
EN, 2989, 3362, 3438, 3437, 3352
EN, 2990, 3363, 3439, 3438, 3362
EN, 2991, 3364, 3440, 3439, 3363
! ... 146 like lines cut
!==================================================
! Part 3: Elements
!==================================================
TYPE,1 			! turn on type 1 elements
MAT,1			! turn on material no. 1
REAL,3 			! turn on constants associated with group 3
EN, 3270, 475, 3979, 3236, 239
EN, 3271, 473, 3797, 3979, 475
EN, 3272, 469, 3799, 3798, 474
EN, 3273, 472, 3800, 3799, 469
EN, 3274, 471, 3801, 3800, 472
EN, 3275, 470, 3802, 3801, 471
EN, 3276, 463, 3803, 3802, 470
EN, 3277, 468, 3804, 3803, 463
EN, 3278, 467, 3805, 3804, 468
EN, 3279, 466, 3806, 3805, 467
EN, 3280, 465, 3807, 3806, 466
EN, 3281, 464, 3808, 3807, 465
EN, 3282, 456, 3976, 3808, 464
EN, 3283, 462, 3975, 3976, 456
EN, 3284, 461, 3974, 3975, 462
EN, 3285, 460, 3973, 3974, 461
EN, 3286, 459, 3972, 3973, 460
EN, 3287, 458, 3971, 3972, 459
EN, 3288, 457, 3970, 3971, 458
EN, 3289, 448, 3969, 3970, 457
! ... 305 like lines cut
!==================================================
! Part 4: Elements
!==================================================
TYPE,1 			! turn on type 1 elements
MAT,1			! turn on material no. 1
REAL,4 			! turn on constants associated with group 4
EN, 2630, 2984, 3015, 2982, 2981
EN, 2631, 2985, 3016, 3015, 2984
EN, 2632, 2986, 3017, 3016, 2985
EN, 2633, 2987, 3018, 3017, 2986
EN, 2634, 2988, 3019, 3018, 2987
EN, 2635, 2989, 3020, 3019, 2988
EN, 2636, 2990, 3021, 3020, 2989
EN, 2637, 2991, 3022, 3021, 2990
EN, 2638, 2992, 3023, 3022, 2991
EN, 2639, 2993, 3024, 3023, 2992
EN, 2640, 2994, 3025, 3024, 2993
EN, 2641, 2995, 3026, 3025, 2994
EN, 2642, 2996, 3027, 3026, 2995
EN, 2643, 2998, 3027, 2996, 2983
EN, 2644, 81, 3028, 244, 79
EN, 2645, 80, 3029, 3028, 81
EN, 2646, 2976, 3029, 80, 76
EN, 2647, 2975, 3030, 3029, 2976
EN, 2648, 2978, 3031, 3030, 2975
EN, 2649, 2977, 3032, 3031, 2978
! ... 208 like lines cut
!==================================================
! Part 5: Elements
!==================================================
TYPE,1 			! turn on type 1 elements
MAT,1			! turn on material no. 1
REAL,5 			! turn on constants associated with group 5
EN, 1, 3, 153, 151, 1
EN, 2, 4, 154, 153, 3
EN, 3, 6, 154, 4, 2
EN, 4, 83, 155, 81, 79
EN, 5, 82, 156, 155, 83
EN, 6, 85, 157, 156, 82
EN, 7, 86, 158, 157, 85
EN, 8, 87, 159, 158, 86
EN, 9, 88, 160, 159, 87
EN, 10, 84, 161, 160, 88
EN, 11, 90, 162, 161, 84
EN, 12, 91, 163, 162, 90
EN, 13, 92, 164, 163, 91
EN, 14, 93, 165, 164, 92
EN, 15, 94, 166, 165, 93
EN, 16, 89, 167, 166, 94
EN, 17, 96, 168, 167, 89
EN, 18, 97, 169, 168, 96
EN, 19, 98, 170, 169, 97
EN, 20, 99, 171, 170, 98
! ... 141 like lines cut
!==================================================
! Part 6: Elements
!==================================================
TYPE,1 			! turn on type 1 elements
MAT,1			! turn on material no. 1
REAL,6 			! turn on constants associated with group 6
EN, 2858, 3239, 3254, 3237, 3235
EN, 2859, 3240, 3255, 3254, 3239
EN, 2860, 3241, 3256, 3255, 3240
EN, 2861, 3242, 3257, 3256, 3241
EN, 2862, 3243, 3258, 3257, 3242
EN, 2863, 3245, 3258, 3243, 3238
EN, 2864, 4, 3259, 3234, 2
EN, 2865, 3, 3260, 3259, 4
EN, 2866, 1, 3261, 3260, 3
EN, 2867, 242, 3262, 3261, 1
EN, 2868, 240, 3263, 3262, 242
EN, 2869, 241, 3264, 3263, 240
EN, 2870, 239, 3265, 3264, 241
EN, 2871, 3236, 3266, 3265, 239
EN, 2872, 3254, 3266, 3236, 3237
EN, 2873, 3220, 3267, 3218, 3213
EN, 2874, 3221, 3268, 3267, 3220
EN, 2875, 3222, 3269, 3268, 3221
EN, 2876, 3223, 3270, 3269, 3222
EN, 2877, 3224, 3271, 3270, 3223
! ... 94 like lines cut
!==================================================
! Part 7: Elements
!==================================================
TYPE,1 			! turn on type 1 elements
MAT,1			! turn on material no. 1
REAL,7 			! turn on constants associated with group 7
EN, 162, 787, 857, 856, 786
EN, 163, 788, 858, 857, 787
EN, 164, 789, 859, 858, 788
EN, 165, 790, 860, 859, 789
EN, 166, 791, 861, 860, 790
EN, 167, 792, 862, 861, 791
EN, 168, 793, 863, 862, 792
EN, 169, 794, 864, 863, 793
EN, 170, 795, 865, 864, 794
EN, 171, 796, 866, 865, 795
EN, 172, 797, 867, 866, 796
EN, 173, 798, 868, 867, 797
EN, 174, 799, 869, 868, 798
EN, 175, 800, 870, 869, 799
EN, 176, 801, 871, 870, 800
EN, 177, 802, 872, 871, 801
EN, 178, 803, 873, 872, 802
EN, 179, 804, 874, 873, 803
EN, 180, 805, 875, 874, 804
EN, 181, 806, 876, 875, 805
! ... 2448 like lines cut
!==================================================
! End of Elements
!==================================================

FINISH 			! finish pre-processor

!********************************************************
!
!
! 	SOLUTION
!
!
!********************************************************

/SOLU                   ! enter solution phase  

! Define DOF constraints - support 1
D,2981,UY,0.,,2983,2
D,2984,UY,0.,,2996,1
D,2981,UZ,0. 				! node number; label of DOF to be contrained; value of contraint; (complex) value of contraint;
					! node number at end of list; node number increment; additional labels (6) with labels of DOFs to be constrained

! Define DOF constraints - support 2
D,3212,UX,0.,,3218,1
D,3212,UY,0.,,3218,1 			! node number; label of DOF to be contrained; value of contraint; (complex) value of contraint;
					! node number at end of list; node number increment; additional labels (6) with labels of DOFs to be constrained

!first set of loads
*DO,I,1,2
F,3512,FX,forces_x(I),,3524,1
F,3512,FY,forces_y(I),,3524,1
SOLVE
*ENDDO

!second set of loads
*DO,I,1,2
F,3512,FX,-forces_x(I),,3524,1
F,3512,FY,forces_y(I),,3524,1
SOLVE
*ENDDO

FINISH 					! finish solution

!********************************************************
!
!
! 	POST PROCESSING
!
!
!********************************************************

/POST1					!Initiates post-processing phase

!Fatigue Analysis

FTSIZE,3980,1,2				!Defines the fatigue data storage array; no. of locations, events and loadings

!Definition of S-N curve
FP,1 ,1e5   ,1e6   ,1e7 	!N values (positions 1 to 20; maximum of 6 entries per line)
FP,21,394.46,299.23,226.99	!S values (positions 21 to 40; maximum of 6 entries per line)
		
!*************************************************************************************
!Compute first set of loadings

!Store stresses
*DO,I,1,2
SET,I 					! turn on load set I
*DO,J,1,3980
FSNODE,J,1,I 				! define node; define event; define loading
*ENDDO
*ENDDO

FE,1,1e6,1.0,loading 1

!Perform fatigue calculations for a particular location or node
*DO,I,1,3980
FTCALC,,I 		!location, node
*ENDDO

!*************************************************************************************
!Compute second set of loadings

FE,1,-1

!Store stresses
*DO,I,3,4
SET,I 					! turn on load set I
*DO,J,1,3980
FSNODE,J,1,I-2 				! define node; define event; define loading
*ENDDO
*ENDDO


!Event repetitions and scale factor
!event number, no. of cycles, scale factor, title
FE,1,1e6,1.0,loading 2

!Perform fatigue calculations for a particular location or node
*DO,I,1,3980
FTCALC,,I 		!location, node
*ENDDO

FINISH 			! finish post-processor

/EOF 			! end of file
