$ NASTRAN input file created by the Patran 2010 input file translator on
$  September 17, 2010 at 18:01:19.
$ Direct Text Input for Nastran System Cell Section
$ Direct Text Input for File Management Section
$ Direct Text Input for Executive Control
$ Linear Static Analysis, Database
SOL 101
CEND
$ Direct Text Input for Global Case Control Data
TITLE = MD Nastran job created on 17-Sep-08 at 17:56:28
ECHO = NONE
SUBCASE 1
$ Subcase name : Default
   SUBTITLE=Default
   SPC = 2
   LOAD = 2
   DISPLACEMENT(SORT1,REAL)=ALL
   SPCFORCES(SORT1,REAL)=ALL
   STRESS(SORT1,REAL,VONMISES,BILIN)=ALL
BEGIN BULK
$ Direct Text Input for Bulk Data
PARAM    POST    0
PARAM   PRTMAXIM YES
$ Elements and Element Properties for region : prop1
PSOLID   1       1       0
$ Pset: "prop1" will be imported as: "psolid.1"
CTETRA   13      1       3955    3954    3953    3952
CTETRA   14      1       3951    3950    3952    3955
CTETRA   15      1       3949    3951    3950    3952
CTETRA   18      1       3955    3944    3943    3942
CTETRA   19      1       3955    3954    3944    3941
CTETRA   20      1       3955    3951    3950    3943
CTETRA   58      1       1871    1870    1457    1177
CTETRA   69      1       3850    3849    3848    1568
CTETRA   70      1       3850    1569    3847    900
CTETRA   71      1       3850    3846    1569    884
CTETRA   72      1       3850    3849    3847    3845
CTETRA   90      1       3955    3810    3943    3950
CTETRA   91      1       3951    3949    906     3809
CTETRA   92      1       3951    3949    3943    906
CTETRA   93      1       3955    3951    3944    3954
CTETRA   94      1       3955    3951    3943    3944
CTETRA   96      1       3808    1522    3807    3806
CTETRA   97      1       3808    3806    3805    1257
CTETRA   98      1       3804    1045    3803    3802
CTETRA   106     1       3845    3787    1680    3786
$ ... 6791 like lines cut
$ Elements and Element Properties for region : prop2
PSOLID   2       2       0
$ Pset: "prop2" will be imported as: "psolid.2"
CTETRA   2       2       3976    3975    3974    3973
CTETRA   9       2       1787    3962    3961    3960
CTETRA   16      2       3955    3948    3947    3946
CTETRA   17      2       3948    3947    3945    3955
CTETRA   21      2       3955    3942    3947    3944
CTETRA   23      2       3936    3935    3934    3933
CTETRA   24      2       3936    3932    3931    3930
CTETRA   25      2       3936    3929    3928    3927
CTETRA   26      2       3936    3926    3934    3925
CTETRA   46      2       3887    3886    3885    3884
CTETRA   48      2       3883    3887    3884    3886
CTETRA   50      2       3880    3879    3878    3887
CTETRA   51      2       3877    3880    3879    3878
CTETRA   52      2       3879    3887    3886    3885
CTETRA   53      2       3887    3876    3884    3885
CTETRA   55      2       3887    3880    3875    3878
CTETRA   63      2       3864    3863    3862    3861
CTETRA   64      2       3864    3945    3860    3859
CTETRA   65      2       3864    3858    3975    3857
CTETRA   75      2       3841    3840    3862    3839
$ ... 5087 like lines cut
$ Elements and Element Properties for region : prop3
PSOLID   3       3       0
$ Pset: "prop3" will be imported as: "psolid.3"
CTETRA   1       3       3978    3977    4076    4030
CTETRA   3       3       3972    4076    3977    4077
CTETRA   4       3       3977    3971    3970    3972
CTETRA   5       3       3977    3972    4077    4078
CTETRA   6       3       3969    3977    3968    3967
CTETRA   7       3       3977    3967    4078    4030
CTETRA   8       3       3966    3965    3964    3963
CTETRA   10      3       3966    3959    749     750
CTETRA   11      3       3966    3958    3957    3956
CTETRA   12      3       3966    3959    750     3964
CTETRA   22      3       3940    3939    3938    3937
CTETRA   27      3       3924    3923    3922    3921
CTETRA   28      3       3924    3920    3919    3918
CTETRA   29      3       3917    3916    3923    3924
CTETRA   30      3       3915    3963    3957    3956
CTETRA   31      3       3921    3914    3913    3924
CTETRA   32      3       3924    3913    3912    3920
CTETRA   33      3       3911    3910    3909    3908
CTETRA   34      3       3907    3906    3905    3904
CTETRA   35      3       3907    3905    3903    3902
$ ... 6927 like lines cut
$ Referenced Material Records
$ Material Record : mat1
$ Description of Material : Date: 13-Aug-08           Time: 18:51:54
MAT1     1      2.+8    7.5+7   .31     8.9-6
$ Material Record : mat2
$ Description of Material : Date: 13-Aug-08           Time: 18:51:54
MAT1     2      2.2+8   7.5+7   .31     8.9-6
$ Material Record : mat3
$ Description of Material : Date: 13-Aug-08           Time: 18:51:54
MAT1     3      2.3+8   7.5+7   .31     8.9-6
$ Nodes of the Entire Model
GRID     1              -17.344  0.     -12.066
GRID     2              -17.344  0.     12.934
GRID     3              -17.344  0.     -8.94099
GRID     4              -17.344  0.     -5.81599
GRID     5              -17.344  0.     -2.69099
GRID     6              -17.344  0.     .434008
GRID     7              -17.344  0.     3.55901
GRID     8              -17.344  0.     6.68401
GRID     9              -17.344  0.     9.80901
GRID     10             17.656   0.     12.934
GRID     11             -14.1622 0.     12.934
GRID     12             -10.9804 0.     12.934
GRID     13             -7.79855 0.     12.934
GRID     14             -4.61674 0.     12.934
GRID     15             -1.43492 0.     12.934
GRID     16             1.7469   0.     12.934
GRID     17             4.92872  0.     12.934
GRID     18             8.11054  0.     12.934
GRID     19             11.2924  0.     12.934
GRID     20             14.4742  0.     12.934
$ ... 88 like lines cut
GRID*    109                            .551154         4.44089-16
*       -.919731
GRID     110            -.437027 0.     -.810193
GRID     111            -1.50161 0.     -.847266
GRID*    112                            -2.29796        -8.88178-16
*       -.249858
GRID*    113                            -3.20838        4.44089-16
*       .127812
GRID*    114                            -4.02505        4.44089-16
*       .537541
GRID*    115                            -4.42096        4.44089-16
*       1.38491
GRID*    116                            -5.19605        4.44089-16
*       2.73605
GRID*    117                            -6.73988        8.88178-16
*       2.85883
GRID     118            -7.72599 0.     2.79905
GRID*    119                            -8.64625        8.88178-16
*       3.19015
GRID*    120                            -9.31106        4.44089-16
*       3.79388
GRID     121            -10.2081 0.     4.34688
GRID     122            -10.6969 0.     5.35721
GRID*    123                            -11.6911        -8.88178-16
*       6.06353
GRID*    124                            -12.8051        4.44089-16
*       6.66769
GRID*    125                            -16.4459        4.44089-16
*       5.55579
GRID     126            -15.7989 0.     3.7365
GRID     127            -15.3054 0.     2.85447
GRID     128            -15.7634 0.     1.37284
GRID     129            -14.315  0.     1.22845
GRID     130            -14.1668 0.     .275809
GRID*    131                            -13.8631        -8.88178-16
*       -.893267
GRID*    132                            -12.7949        -8.88178-16
*       -1.14374
GRID     133            -11.9345 0.     -2.06899
GRID     134            -11.0381 0.     -3.08198
GRID     135            -10.2361 0.     -3.72742
GRID     136            -9.79349 0.     -4.95602
GRID     137            -8.57951 0.     -5.31386
GRID     138            -7.64885 0.     -6.05598
GRID*    139                            -6.51877        1.33227-15
*       -6.48877
GRID     140            -5.54776 0.     -7.11259
GRID*    141                            -4.45819        -8.88178-16
*       -7.53019
GRID*    142                            -3.3678         4.44089-16
*       -7.93953
GRID     143            -2.29482 0.     -7.93341
GRID*    144                            -1.08616        4.44089-16
*       -8.06847
GRID*    145                            .0237628        -8.88178-16
*       -8.38287
GRID*    146                            1.18474         -8.88178-16
*       -8.23733
GRID     147            2.48476  0.     -8.11341
GRID*    148                            3.5958          -8.88178-16
*       -8.28179
GRID     149            4.70071  0.     -7.98148
GRID*    150                            5.83726         4.44089-16
*       -7.80118
GRID*    151                            7.04484         8.88178-16
*       -7.7611
GRID*    152                            7.96198         4.44089-16
*       -7.14805
GRID*    153                            9.24493         -8.88178-16
*       -7.23035
GRID     154            10.7842  0.     -5.5712
GRID     155            11.7156  0.     -5.13104
GRID*    156                            12.8209         4.44089-16
*       -5.13032
GRID*    157                            14.621          8.88178-16
*       -3.83115
GRID     158            15.4058  0.     -3.00785
GRID     159            15.9616  0.     -1.76047
GRID     160            14.8689  0.     .99378
GRID     161            13.4102  0.     1.26231
GRID     162            12.3421  0.     .884491
GRID     163            11.2253  0.     .462486
GRID     164            10.2229  0.     .304756
GRID     165            9.25212  0.     -.102696
GRID     166            8.11747  0.     .0159457
GRID*    167                            7.07192         -8.88178-16
*       -.240034
GRID     168            6.23151  0.     -.749557
GRID*    169                            5.24111         4.44089-16
*       -.600711
GRID     170            4.25769  0.     -.80104
GRID*    171                            3.24619         8.88178-16
*       -.89047
GRID*    172                            2.38564         -8.88178-16
*       -1.23576
GRID     173            1.52615  0.     -.865144
GRID*    174                            -15.4168        4.44089-16
*       -10.1213
GRID*    175                            -15.6496        4.44089-16
*       -4.68541
GRID*    176                            -15.5728        4.44089-16
*       -1.44384
GRID*    177                            -14.4304        -8.88178-16
*       8.58385
GRID     178            -13.5588 0.     10.6224
GRID     179            -9.81953 0.     11.0549
GRID*    180                            -6.21994        4.44089-16
*       10.9557
GRID     181            -2.91265 0.     10.7185
GRID     182            .192875  0.     10.6834
GRID     183            3.44855  0.     10.8989
GRID     184            7.0113   0.     10.8208
GRID     185            10.6558  0.     10.4999
GRID*    186                            14.3759         4.44089-16
*       9.69998
GRID     187            15.3034  0.     5.84883
GRID     188            15.8292  0.     2.24699
GRID*    189                            16.27           -8.88178-16
*       -.586297
GRID*    190                            15.9678         -8.88178-16
*       .360815
GRID*    191                            -13.8175        -8.88178-16
*       7.46903
GRID*    192                            -15.4654        -8.88178-16
*       6.77231
GRID*    193                            13.0797         4.44089-16
*       -9.68941
GRID     194            10.2631  0.     -10.3197
GRID     195            7.46624  0.     -10.8348
GRID     196            .230411  0.     -10.6246
GRID     197            -2.99613 0.     -10.9993
GRID*    198                            -7.03846        -8.88178-16
*       -10.6342
GRID     199            -9.93333 0.     -10.6608
GRID*    200                            -12.9742        -8.88178-16
*       -10.2861
GRID*    201                            15.5976         4.44089-16
*       -5.08366
GRID*    202                            15.2426         8.88178-16
*       -8.4111
GRID     203            13.9748  0.     -4.78257
GRID*    204                            -13.9556        4.44089-16
*       -2.05862
GRID*    205                            -13.7939        8.88178-16
*       -4.47314
GRID     206            11.7267  0.     -6.20976
GRID     207            10.2424  0.     -6.42782
GRID*    208                            13.601          4.44089-16
*       -6.23769
GRID     209            8.99834  0.     -9.15949
GRID     210            7.29306  0.     -9.27375
GRID     211            -11.5758 0.     -4.80675
GRID*    212                            -10.9602        4.44089-16
*       -6.15933
GRID*    213                            -9.63593        -8.88178-16
*       -6.75858
GRID*    214                            -7.9931         4.44089-16
*       -7.41607
GRID*    215                            -6.76524        -8.88178-16
*       -8.0689
GRID*    216                            -5.3095         -8.88178-16
*       -8.73346
GRID*    217                            -4.09766        4.44089-16
*       -9.55651
GRID*    218                            -2.81545        4.44089-16
*       -9.56627
GRID*    219                            -1.68989        -8.88178-16
*       -9.22112
GRID     220            -.559514 0.     -9.68505
GRID     221            .760971  0.     -9.70029
GRID*    222                            1.8908          -8.88178-16
*       -9.37681
GRID     223            3.31948  0.     -10.8074
GRID*    224                            4.37362         4.44089-16
*       -9.66958
GRID     225            -10.9706 0.     -7.97191
GRID*    226                            -9.17491        4.44089-16
*       -8.18764
GRID*    227                            -6.27618        -8.88178-16
*       -9.57322
GRID*    228                            -12.5475        4.44089-16
*       -6.49117
GRID*    229                            5.81186         4.44089-16
*       -9.48681
GRID     230            5.27766  0.     -10.6723
GRID*    231                            1.80761         4.44089-16
*       -10.8381
GRID     232            -1.51562 0.     -10.7778
GRID*    233                            -4.8845         1.33227-15
*       -10.6726
GRID     234            13.8393  0.     2.22031
GRID     235            -11.1506 0.     9.22006
GRID*    236                            -7.91172        8.88178-16
*       9.23038
GRID*    237                            -4.55662        4.44089-16
*       9.12051
GRID*    238                            -1.68793        -8.88178-16
*       8.66908
GRID     239            1.72424  0.     9.07905
GRID     240            5.43228  0.     9.04134
GRID     241            9.14209  0.     8.55789
GRID     242            12.6896  0.     7.9566
GRID     243            -9.49311 0.     -9.48266
GRID*    244                            -11.9542        -8.88178-16
*       -9.03139
GRID     245            -8.27407 0.     7.20159
GRID     246            -5.62977 0.     7.4947
GRID*    247                            -3.16032        4.44089-16
*       6.7212
GRID     248            -.283504 0.     6.988
GRID     249            2.48281  0.     7.30629
GRID     250            6.39062  0.     5.59693
GRID     251            10.899   0.     6.29863
GRID     252            12.6392  0.     4.88012
GRID*    253                            11.2663         4.44089-16
*       1.65715
GRID     254            10.1146  0.     1.75901
GRID     255            12.1042  0.     2.10336
GRID*    256                            -12.9694        4.44089-16
*       8.99293
GRID*    257                            -11.988         4.44089-16
*       7.97436
GRID     258            -7.61213 0.     4.08222
GRID     259            9.0928   0.     1.16398
GRID     260            7.99805  0.     1.49999
GRID     261            6.88216  0.     1.27073
GRID     262            8.67615  0.     2.34559
GRID     263            7.02407  0.     2.68657
GRID     264            5.68149  0.     .886663
GRID     265            4.53795  0.     .699296
GRID     266            3.4426   0.     .740999
GRID     267            3.23148  0.     2.20336
GRID     268            2.08217  0.     1.8585
GRID     269            5.76896  0.     2.30758
GRID     270            4.78747  0.     3.36307
GRID     271            4.44264  0.     2.16739
GRID     272            2.3722   0.     .359799
GRID     273            1.2989   0.     .668513
GRID*    274                            .199235         4.44089-16
*       .333297
GRID     275            2.05537  0.     3.13094
GRID     276            .527069  0.     1.47347
GRID     277            -.751647 0.     .937255
GRID     278            .238155  0.     4.96973
GRID*    279                            -1.13649        4.44089-16
*       1.9723
GRID*    280                            -1.02128        4.44089-16
*       .0489624
GRID*    281                            -2.03288        -8.88178-16
*       .765784
GRID*    282                            -2.85351        4.44089-16
*       1.20562
GRID     283            -7.20089 0.     5.60115
GRID*    284                            -4.84644        8.88178-16
*       5.74382
GRID*    285                            -1.59656        4.44089-16
*       5.02768
GRID     286            2.98591  0.     5.0675
GRID     287            10.2408  0.     2.80871
GRID     288            8.98377  0.     5.0257
GRID     289            4.69497  0.     6.81415
GRID     290            3.04123  0.     -9.66037
GRID     291            5.94656  0.     3.81988
GRID     292            -5.36247 0.     4.31558
GRID     293            -14.8629 0.     1.98476
GRID*    294                            -7.82887        8.88178-16
*       -9.16316
GRID     295            3.35003  0.     3.67667
GRID*    296                            10.7425         -8.88178-16
*       -8.16574
GRID*    297                            -14.9975        4.44089-16
*       -7.5971
GRID     298            -10.6675 0.     7.4878
GRID*    299                            -9.14867        -8.88178-16
*       4.75836
GRID     300            7.52935  0.     7.17047
GRID     301            -3.10989 0.     3.8502
GRID     302            4.37308  0.     4.53604
GRID     303            -17.344 -4.     -12.066
GRID     304            17.656  -4.     -12.066
GRID     305            -14.1622-4.     -12.066
GRID     306            -10.9804-4.     -12.066
GRID     307            -7.79855-4.     -12.066
GRID     308            -4.61674-4.     -12.066
GRID     309            -1.43492-4.     -12.066
GRID     310            1.7469  -4.     -12.066
GRID     311            4.92872 -4.     -12.066
GRID     312            8.11054 -4.     -12.066
GRID     313            11.2924 -4.     -12.066
GRID     314            14.4742 -4.     -12.066
GRID     315            17.656  -4.     12.934
GRID     316            17.656  -4.     -8.94099
GRID     317            17.656  -4.     -5.81599
GRID     318            17.656  -4.     -2.69099
GRID     319            17.656  -4.     .434008
$ ... 1596 like lines cut
GRID*    1916                           -.288763        -4.97065-4
*       -5.60913
GRID     1917           -7.9972744.1875 -3.0074
GRID     1918           -4.8465935.4288 -5.89924
GRID     1919           -11.3728-13.2089-1.98637
GRID     1920           -2.66718-1.20409-6.54899
GRID     1921           -4.35748-1.053043.80143
GRID     1922           -14.9285-.9091861.89055
GRID     1923           -5.8487930.7151 -3.16119
GRID     1924           -7.0211742.8502 -2.84222
GRID     1925           -3.41283-2.129568.59182
GRID     1926           -3.1586818.0918 -5.66428
GRID     1927           -6.5283443.425  -4.98521
GRID     1928           10.1911 21.2925 -4.48706
GRID     1929           -11.73733.55034 2.12791
GRID     1930           3.94299 14.5793 -6.14859
GRID     1931           4.4345  11.9227 -4.55179
GRID     1932           -9.1742522.7527 -.104254
GRID     1933           -10.17882.72317 -.444713
GRID     1934           5.70043 28.598  -6.22292
GRID     1935           11.3132 36.2679 -5.28066
GRID     1936           -4.45099-1.2904 -6.01672
$ ... 168 like lines cut
GRID*    2105                           -2.50654        -4.97065-4
*       -2.62413
GRID     2106           6.13775 -1.16518-9.03673
GRID     2107           11.1822 -22.68341.73305
GRID     2108           4.02931 -1.359934.89233
GRID     2109           6.33811 -1.3826 6.52601
GRID     2110           -10.62981.84362 .0230945
GRID     2111           -6.6879433.7433 -2.60015
GRID     2112           9.63248 -17.31111.60283
GRID     2113           -9.1119131.5902 -2.2525
GRID     2114           10.0353 -15.5849.523916
GRID     2115           -4.8106313.4596 -4.73401
GRID     2116           -3.1682820.089  -5.77457
GRID     2117           5.88744 17.4108 -4.7412
GRID     2118           12.0684 -1.228071.79464
GRID     2119           10.9464 -.8684261.20963
GRID     2120           -2.0486 35.7261 -5.46767
GRID     2121           -5.832  34.7095 -3.37697
GRID     2122           13.2624 43.0483 -4.86588
GRID     2123           9.00671 6.65523 -3.75579
GRID     2124           7.10761 -4.203051.51213
GRID     2125           8.28983 -1.30239-.516641
$ ... 72 like lines cut
GRID*    2198                           8.22989         -4.97065-4
*       -4.10584
GRID     2199           9.99692 -19.15972.77766
GRID     2200           -9.6969343.4223 -2.76558
GRID     2201           -12.6604-3.215672.84958
GRID     2202           -9.356478.75312 .598241
GRID     2203           -10.584 9.09598 -.094663
GRID     2204           -10.59127.71257 -.039519
GRID     2205           -11.85  10.1941 1.74669
GRID     2206           -11.89318.16811 1.84259
GRID     2207           -10.62728.46062 1.22162
GRID     2208           6.5919  -2.48639-8.56138
GRID     2209           -11.2629-7.433652.85044
GRID     2210           6.67145 -3.99969-1.57878
GRID     2211           4.4262  31.5637 -7.81848
GRID     2212           .157189 -3.99969-1.66029
GRID     2213           -11.0228-16.1843-.780376
GRID     2214           -8.05697.718781 -2.31244
GRID     2215           -7.86996-.259437-2.29326
GRID     2216           -9.267762.88381 -1.09926
GRID     2217           -6.11637-3.998232.48262
GRID     2218           1.40634 -3.99969-1.61234
$ ... 9 like lines cut
GRID*    2228                           -6.71192        -4.97065-4
*       -.562195
GRID     2229           10.0497 -2.5923 -3.71024
GRID*    2230                           9.26325         -4.97065-4
*       -3.86129
GRID     2231           8.30661 -1.26883-2.12543
GRID     2232           8.59912 -2.59949-2.58337
GRID     2233           8.64707 -3.99969-1.62193
GRID     2234           9.6133  -5.2848 -1.63392
GRID     2235           -1.78966-1.25204-5.94719
GRID     2236           -11.1002-3.60119.295442
GRID     2237           -15.0708-1.159994.46438
GRID*    2238                           -14.0773        -4.97065-4
*       4.33609
GRID     2239           -10.75436.5785  .857181
GRID     2240           -10.71352.55054 1.64359
GRID     2241           -10.58164.66522 .101939
GRID     2242           -9.243783.20988 .51912
GRID     2243           -9.435594.43026 1.46617
GRID     2244           -6.09334-3.99969-1.6579
GRID     2245           1.07577 -11.4241-1.3076
GRID     2246           -.025027-9.135332.10873
GRID     2247           -4.00983-16.36412.12071
GRID     2248           -13.55531.6982  3.72147
GRID     2249           7.96492 -14.7134-1.29498
GRID     2250           11.7137 -4.29458-2.20447
GRID     2251           10.6706 -3.73115-2.19256
GRID     2252           -5.69294-5.27041-1.66509
GRID     2253           3.50663 30.377  -6.61133
GRID     2254           -12.5285-3.234851.99124
GRID     2255           -11.075 -1.786462.3568
GRID     2256           -11.5862-2.4892 2.51392
GRID     2257           -4.4222218.7703 -3.39615
GRID     2258           -5.6166919.104  -4.59627
$ ... 27 like lines cut
GRID*    2286                           -1.27418        -4.97065-4
*       -3.02932
GRID     2287           -1.00564.893806 -3.20434
GRID     2288           -2.46338.582119 -3.98117
GRID     2289           11.0615 -1.96892-9.33979
GRID     2290           7.86066 -1.34555-10.2029
GRID     2291           8.78134 -2.84404-10.493
GRID     2292           9.52459 -1.57811-8.47186
GRID     2293           16.4249 -3.07421-.322435
GRID     2294           2.19275 26.8837 -6.35239
GRID     2295           2.17117 28.8785 -6.48425
GRID     2296           3.88065 28.6268 -7.36177
GRID     2297           14.4333 -3.05796-3.00682
GRID     2298           10.7809 -5.26322-2.16858
GRID     2299           11.801  -5.52597-2.11182
GRID     2300           10.5771 -6.1791 -.847509
GRID     2301           11.3084 -6.53634-1.97438
GRID     2302           8.4193  42.4993 -6.57297
GRID     2303           9.2112  39.8916 -6.80728
GRID     2304           9.84108 42.8565 -6.24929
GRID     2305           9.55244 41.4156 -7.29745
GRID     2306           -3.2354134.0669 -6.54899
$ ... 206 like lines cut
GRID*    2513                           11.517          -4.97065-4
*       -2.97657
GRID     2514           10.8768 -1.88261-1.68906
GRID     2515           -11.6342-1.2928 2.65298
GRID     2516           13.8283 -1.45584-4.86588
GRID     2517           7.26606 23.1795 -5.58276
GRID     2518           5.76037 24.6108 -5.93281
GRID     2519           4.00053 23.7501 -5.98076
GRID     2520           5.85627 23.2778 -4.81553
GRID     2521           2.87846 -5.01627-.576581
GRID     2522           3.41792 -5.25842-1.64591
GRID     2523           14.4181 -.537558-3.10844
GRID     2524           3.1422  -24.8036-.722834
GRID     2525           2.20474 -22.9383.425614
GRID     2526           -3.12272-6.82645-2.22852
GRID     2527           8.17475 32.7483 -5.37417
GRID     2528           9.96335 32.2184 -5.35259
GRID     2529           -11.2314-.175522.169072
GRID     2530           1.87147 -8.38968-1.43972
GRID     2531           16.0726 -.92565 -3.75016
GRID     2532           14.4828 -1.07942-3.92362
GRID     2533           -14.4729-1.3959 .0372038
$ ... 132 like lines cut
GRID*    2666                           12.4497         -4.97065-4
*       -2.49945
GRID*    2667                           11.2868         -4.97065-4
*       -1.93602
GRID     2668           12.9316 -1.00988-1.43012
GRID     2669           11.6968 -.580715-1.37738
GRID     2670           11.4738 -.551944-.240917
GRID     2671           10.6227 -.868426-1.02973
GRID     2672           -.800668-2.53543-.677378
GRID     2673           -2.51439-2.885832.88249
GRID     2674           -1.028  -1.17275.258059
GRID     2675           9.49822 -1.84904.19065
GRID     2676           -7.10033-1.347954.0316
GRID     2677           -8.35358-1.186073.01167
GRID     2678           11.5242 -2.376511.69874
GRID     2679           5.84369 -9.893652.12771
GRID     2680           -6.37386-6.66341.787651
GRID     2681           -7.57266-7.447432.06557
GRID     2682           7.01233 -2.051571.56291
GRID     2683           7.32215 -1.0011 .432297
GRID     2684           12.0493 -1.06743-4.13941
GRID     2685           11.8838 -2.08161-4.40314
GRID     2686           -8.59883-.7365591.09694
GRID     2687           -8.04498-.6022932.21902
$ ... 50 like lines cut
GRID*    2738                           -5.56347        -4.97065-4
*       -1.18557
GRID     2739           -8.34758-22.6475-1.5583
GRID     2740           -6.99474-2.09905-3.10813
GRID     2741           -.55729442.7127 -6.24449
GRID     2742           2.9615  43.2021 -6.74875
GRID     2743           -.23122142.5065 -7.81732
GRID     2744           1.57417 42.3458 -8.41672
GRID     2745           .818926 43.7436 -7.65188
GRID     2746           -9.97744-2.539554.08434
GRID     2747           -10.0326-1.846652.68894
GRID     2748           -9.04371-1.241833.87912
GRID     2749           -9.0873 -1.708642.48288
GRID     2750           -10.1165-.8804142.1303
GRID     2751           -11.4747-.8575013.50483
GRID     2752           -10.0973-1.211284.22101
GRID     2753           -9.93225-.9875013.2965
GRID     2754           -.28876333.8799 -6.5346
GRID     2755           1.23851 33.6234 -7.75498
GRID     2756           1.30804 35.237  -6.78395
GRID     2757           .77989  -2.031352.52738
GRID     2758           1.35949 -1.335713.29623
$ ... 9 like lines cut
GRID*    2768                           -.259992        -4.97065-4
*       -3.26189
GRID     2769           2.6411  -1.22807-3.12762
GRID     2770           -10.6919-1.32637-3.97877
GRID*    2771                           -.274378        -4.97065-4
*       -4.42472
GRID*    2772                           1.00834         -4.97065-4
*       -5.77936
GRID     2773           1.16897 -2.60908-3.83491
GRID     2774           -.154859-2.68181-5.38409
GRID     2775           1.0602  -2.65502-5.2905
GRID     2776           .66961  -1.29305-4.09896
GRID*    2777                           1.54779         -4.97065-4
*       -3.53521
GRID     2778           1.1426  -1.92097-2.49705
GRID     2779           3.3388  -1.93056.854784
GRID     2780           -11.1499-2.65943-4.23052
GRID     2781           -10.3443-2.67382-4.87787
GRID     2782           14.1663 -2.96153.0204206
GRID     2783           14.1615 -3.02386.933904
GRID     2784           13.2936 -2.63306.775663
GRID     2785           -2.02058-14.9589-2.04743
GRID     2786           -6.805435.31497 -2.92862
GRID     2787           -7.092854.57733 -.83974
GRID     2788           -8.972855.64824 .312927
GRID     2789           -7.042796.20448 -1.04411
GRID     2790           -.22402825.8959 -6.04789
GRID     2791           -2.0126325.7449 -4.87787
GRID     2792           -.24081127.8907 -6.17017
GRID     2793           -5.808173.90638 -3.50889
GRID     2794           -4.2848 3.7716  -2.52527
GRID     2795           -3.705342.64885 -2.63851
GRID     2796           -12.5381-1.45732-8.45926
GRID     2797           -11.4136-2.72896-8.07626
$ ... 183 like lines cut
GRID*    2981                           -13.0584        -4.97065-4
*       2.58585
GRID     2982           -.34151 39.8427 -6.89664
GRID     2983           .790154 41.2597 -7.2371
GRID     2984           3.16857 40.6723 -7.99234
GRID     2985           2.83237 38.6004 -7.15063
GRID     2986           1.23963 39.1406 -7.12748
GRID     2987           1.75079 40.3021 -8.24656
GRID     2988           16.4153 -3.064623.02461
GRID     2989           16.8457 -2.956274.49663
GRID     2990           16.299  -1.282833.90419
GRID     2991           -9.0423832.7411 -.610147
GRID     2992           -10.335530.4459 .13138
GRID     2993           -9.0687630.7439 -.50705
GRID     2994           -10.381231.1143 -1.16713
GRID     2995           -11.455532.0482 .564993
GRID     2996           -12.3487-.8396551.84499
GRID     2997           -13.1484-.8233871.39598
GRID     2998           7.21331 -23.1325.432807
GRID     2999           8.19872 -25.0985-.691665
GRID     3000           5.9258  -25.3862-.730027
GRID     3001           5.21372 -23.3483-.794762
$ ... 89 like lines cut
GRID*    3091                           -1.31733        -4.97065-4
*       -5.44849
GRID     3092           -4.8322125.4428 -5.36937
GRID     3093           -3.42242-.95474 -5.46048
GRID*    3094                           -2.80384        -4.97065-4
*       -5.0457
GRID     3095           -7.5942326.9197 -3.46089
GRID     3096           -5.8679726.7207 -2.9454
GRID     3097           -6.3522826.059  -4.40794
GRID     3098           -6.3474928.0586 -4.50864
GRID     3099           7.96616 -1.273621.84259
GRID     3100           7.22773 -1.4413 3.06046
GRID     3101           8.73339 -1.561331.01542
GRID     3102           -10.6541.920474 .58054
GRID     3103           -13.07031.92237 2.65778
GRID     3104           -12.375 .730769 2.54749
GRID     3105           -12.5381.152949 1.8354
GRID     3106           -11.147 1.17639 2.16654
GRID     3107           -2.0270229.7369 -5.11283
GRID     3108           -11.51671.85284 .718121
GRID     3109           -11.5119.526974 .655783
GRID     3110           -12.049 .965734 1.30074
GRID     3111           -3.03401-.82527 -2.88546
GRID     3112           -3.8396 1.53157 -4.46068
GRID*    3113                           -3.79644        -4.97065-4
*       -4.71243
GRID     3114           -3.41283-.415281-3.79655
GRID     3115           8.60237 -22.4708-.702487
GRID     3116           11.245  -22.3722-.406969
GRID     3117           8.66625 -19.52891.64359
GRID     3118           9.87224 -20.2242-.68687
GRID     3119           11.4523 -20.55271.66517
GRID     3120           9.75236 -18.7593.463976
GRID     3121           6.34778 -21.4014-.703653
GRID     3122           7.6233  -19.2148-.684472
GRID     3123           6.4317  -20.69171.62921
GRID     3124           8.61351 -20.9579.480759
GRID     3125           -3.80124-11.50182.19983
GRID     3126           1.6437  -2.172728.05716
GRID     3127           -4.80583-9.384682.14229
GRID     3128           -3.62622-9.60047-1.30305
GRID     3129           -5.1738 -11.1794-1.27207
GRID     3130           -4.45578-11.3531.471169
GRID     3131           -2.97933-22.638 2.01379
GRID     3132           -2.45139-25.2855.205035
GRID     3133           -10.5938-6.050132.04624
$ ... 61 like lines cut
GRID*    3195                           9.64687         -4.97065-4
*       -2.48507
GRID     3196           2.07047 18.7319 -5.09844
GRID     3197           -5.570666.12056 -1.88327
GRID     3198           10.4501 -1.32157-2.82073
GRID     3199           9.77634 -2.63066-2.51384
GRID     3200           9.49749 -1.21993-3.21681
GRID     3201           10.9859 -1.73963-3.52463
GRID     3202           2.14262 4.26281 -5.64838
GRID     3203           -.0753777.91396 -4.945
GRID     3204           1.59099 6.23176 -4.58713
GRID     3205           3.61212 5.96951 -5.60913
GRID     3206           4.49204 8.41027 -5.70504
GRID     3207           2.35099 6.91417 -5.91842
GRID     3208           12.0325 -3.26602.334506
GRID     3209           12.0061 -3.270821.28156
GRID     3210           12.0637 -3.89899.756482
GRID     3211           12.4593 -2.25663.622217
GRID     3212           12.4928 -2.52516-.279279
GRID     3213           12.0349 -3.27082-.379978
GRID     3214           13.3152 -2.74095-.133025
GRID     3215           12.9627 -3.34035.598241
$ ... 428 like lines cut
GRID*    3644                           -6.58725        -4.97065-4
*       -3.30025
GRID     3645           -10.0374-2.9633 1.29758
GRID     3646           -9.94388-4.23465-.219339
GRID     3647           -9.87883-3.818311.4853
GRID     3648           -9.09702-4.2333 .930055
GRID     3649           -9.27499-2.399521.49817
GRID     3650           -8.88013-1.5245 .066387
GRID     3651           -7.48634-3.43146-.622135
GRID     3652           -9.12631-2.38041-1.03842
GRID     3653           -8.8409 -3.192621.365
GRID     3654           -8.24876-1.97443-.570563
GRID     3655           -7.54149-3.71197.919519
GRID     3656           -9.35828-3.39881.36227
GRID     3657           8.94477 -2.1322 7.84595
GRID     3658           7.8199  -5.16492.538301
GRID     3659           8.39533 -3.99969-.202556
GRID     3660           10.1767 -3.925361.7347
GRID     3661           10.5867 -4.97071-.540617
GRID     3662           8.97055 -5.78393-.343831
GRID     3663           10.3829 -4.45043.588651
GRID     3664           -2.03486-23.2073.302976
$ ... 88 like lines cut
GRID*    3753                           -4.77466        -4.97065-4
*       -4.33601
GRID     3754           13.418  .704096 -1.87543
GRID     3755           13.4375 1.89121 -2.26209
GRID     3756           14.1687 2.50739 -1.20955
GRID     3757           -11.3944-2.60189-.526231
GRID     3758           -11.8188-2.61148-1.30305
GRID     3759           -13.2861-1.8922 -.979376
GRID     3760           -12.3846-1.59969-.451906
GRID     3761           -12.3223-2.42686-.730027
GRID     3762           -12.5141-1.47022-2.33642
GRID     3763           -12.236 -1.86343-1.36299
GRID     3764           -13.7297-2.38131-1.96479
GRID     3765           -3.28053-4.20032-.192595
GRID     3766           -2.42783-4.35438.716285
GRID     3767           -3.5423 -4.445641.18086
GRID     3768           -3.57958-5.86082-.29971
GRID     3769           -12.26  -3.23006-.998557
GRID     3770           -12.4494-3.07421-1.94801
GRID     3771           -11.0012-2.88001-2.43951
GRID     3772           -11.6414-.3529442.3293
GRID     3773           -10.8142-.8600542.79679
$ ... 168 like lines cut
GRID*    3942                           -5.67856        -4.97065-4
*       -3.80854
GRID     3943           -5.97826.980119 -3.81333
GRID     3944           -5.832  .428672 -2.45869
GRID     3945           -4.38386-.820475-2.42513
GRID     3946           -3.901941.41408 -2.66009
GRID     3947           -4.42701-.408088-3.47527
GRID     3948           -3.71452.0045885-2.08531
GRID     3949           -6.668762.63686 -3.11803
GRID     3950           -5.067872.79061 -3.70594
GRID     3951           -6.210011.49028 -2.74051
GRID     3952           -6.074162.30119 -1.68427
GRID     3953           -4.623852.86179 -1.52497
GRID     3954           -4.96306.989991 -1.56287
GRID     3955           -5.114071.35971 -2.78559
GRID     3956           8.89012 -7.13115-.920219
GRID     3957           7.45787 -6.48839-1.37018
GRID     3958           7.71618 -7.06085-2.39878
GRID     3959           7.01277 -9.34395-1.45583
GRID     3960           -2.15169-.961933-10.7688
GRID     3961           -1.08716-1.58531-10.8814
GRID     3962           -3.46318-2.57791-10.3204
$ ... 324 like lines cut
$ Loads for Load Case : Default
SPCADD   2       1
LOAD     2      1.      1.       1
$ Displacement Constraints of Load Set : fix
SPC1     1       123456  616
SPC1     1       123456  626     THRU    641
SPC1     1       123456  1777    1778    1779    3979    3980    3981
         3982
SPC1     1       123456  4120    THRU    4158
SPC1     1       123456  4276    THRU    4286
$ Gravity Loading of Load Set : rot
GRAV     1       0      3.5+8    0.     1.       0.
$ Referenced Coordinate Frames
ENDDATA 55fea233
