*********************************************************************
** Abaqus/FROMNASTRAN Version 6.7-1
**
** reading bulk data from: test.bdf
**  creating ABAQUS input: test.inp
** writing diagnostics to: test.log
**
**  environment variables: fromnastran_wtmass_fixup <not present>
**                       : fromnastran_distribution <not present>
**                       : fromnastran_pbar_zero_reset <not present>
**                       : fromnastran_loadcases <not present>
**                       : fromnastran_surface_based_coupling <not present>
**                       : fromnastran_cquad4 <not present>
**                       : fromnastran_chexa <not present>
**                       : fromnastran_ctetra <not present>
**                       : fromnastran_cbar <not present>
**                       : fromnastran_beam_offset_coupling <not present>
**                       : fromnastran_beam_orientation_vector <not present>
**
** command line arguments: wtmass_fixup <not present>
**                       : distribution <not present>
**                       : pbar_zero_reset <not present, using default=1e-20
**                       : loadcases <not present>
**                       : surface_based_coupling <not present>
**                       : cquad4 <not present>
**                       : chexa <not present>
**                       : ctetra <not present>
**                       : cbar <not present>
**                       : beam_offset_coupling <not present>
**                       : beam_orientation_vector <not present>
**
** PARAM,WTMASS will NOT be used to adjust mass and density
** *DISTRIBUTION will be used for shell offsets, orientations, and thicknesses
** Zero PBAR/PBEAM cross sectional parameters will be reset to 1e-20
** SUBCASEs for SOL 101 and 108 will be General STEPs
** Rigid links will be modeled using non-surface-based constraints
** Beam orientations will use a third node on the element connectivity
** Beam offsets will be modeled using rigid couplings and extra nodes
**
** --------------------------------
** NASTRAN Case Control entities processed:
**      keyword   number
** ------------   ------
**   BEGIN BULK        1
** DISPLACEMENT        1
**         LOAD        1
**          SPC        1
**      SUBCASE        1
** --------------------------------
** NASTRAN Bulk Data processed:
**      keyword   number
** ------------   ------
**         CBAR      384
**       CQUAD4     7977
**      ENDDATA        1
**        FORCE        6
**         GRID     8628
**         LOAD        1
**         MAT1        4
**         PBAR        1
**       PSHELL        4
**         SPC1        1
**       SPCADD        1
**
** ---------------------------------------------------
** ---- *NODE ----------------------------------------
** ---------------------------------------------------
**
** following nodes were defined in the global coordinate system
**
*SYSTEM
**
*NODE, SYSTEM=R
    1015,         -9.,       -16.5,        -3.6
    1016,        -7.5,       -16.5,        -3.6
    1017,         -6.,       -16.5,        -3.6
    1018,        -4.5,       -16.5,        -3.6
    1019,         -3.,       -16.5,        -3.6
    1020,        -1.5,       -16.5,        -3.6
    1021, 2.23517e-07,       -16.5,        -3.6
    1022,         1.5,       -16.5,        -3.6
    1023,          3.,       -16.5,        -3.6
    1024,         4.5,       -16.5,        -3.6
    1025,          6.,       -16.5,        -3.6
    1026,         7.5,       -16.5,        -3.6
    1027,          9.,       -16.5,        -3.6
    1028,        10.5,       -16.5,        -3.6
    1029,         12.,       -16.5,        -3.6
    1030,        13.5,       -16.5,        -3.6
    1031,         15.,       -16.5,        -3.6
    1032,        16.5,       -16.5,        -3.6
    1037,         -9.,        -15.,        -3.6
    1038,        -7.5,        -15.,        -3.6
** ... 8608 like lines cut
**
** ---------------------------------------------------
** ---- *MATERIAL ------------------------------------
** ---------------------------------------------------
**
** material data from MAT1 with MID = 1
**
*MATERIAL, NAME=MAT_MID_1
*ELASTIC
 1.0000e+00, 0.2
*DENSITY
2500.,
**
** material data from MAT1 with MID = 2
**
*MATERIAL, NAME=MAT_MID_2
*ELASTIC
 1.0000e+00, 0.25
*DENSITY
2500.,
**
** material data from MAT1 with MID = 3
**
*MATERIAL, NAME=MAT_MID_3
*ELASTIC
 1.0000e+00, 0.25
*DENSITY
2500.,
**
** material data from MAT1 with MID = 4
**
*MATERIAL, NAME=MAT_MID_4
*ELASTIC
 1.0000e+00, 0.25
*DENSITY
2500.,
**
** ---------------------------------------------------
** ---- BEAM elements --------------------------------
** ---------------------------------------------------
**
** nodes created for defining beam orientations
**
*SYSTEM
*NODE
**
   20001,        -6.5,        -15.,          0.
   20002,        -6.5,        -15.,         0.9
   20003,        -6.5,        -15.,         1.8
   20004,        -6.5,        -15.,         2.7
   20005,          1.,        -15.,         2.7
   20006,          1.,        -15.,         1.8
   20007,          1.,        -15.,         0.9
   20008,  0.99999955,        -15., -4.9670556e-07
   20009,         8.5,        -15.,         2.7
   20010,         8.5,        -15.,         1.8
   20011,         8.5,        -15.,         0.9
   20012,         8.5,        -15.,          0.
   20013,         16.,        -15.,         2.7
   20014,         16.,        -15.,         1.8
   20015,         16.,        -15.,         0.9
   20016,         16.,        -15.,          0.
   20017,        -6.5,        -7.5,         2.7
   20018,        -6.5,        -7.5,         1.8
   20019,        -6.5,        -7.5,         0.9
   20020,        -6.5,        -7.5,          0.
** ... 364 like lines cut
**
** following elements refer to a PBAR entry with PID = 3 and MID = 3
**
*BEAM GENERAL SECTION, SECTION=GENERAL, ELSET=ES_PID_BAR_3,
 DENSITY=2500.
** A, I11, I12, I22, J / blank line / E, G, ALPHA
** (Zero area and/or inertia was reset to 1e-20)
0.16, 0.00213333, 0., 0.00213333, 1e-20

5e+07, 2e+07
*SECTION POINTS
0.2,0.2,  -0.2,0.2,  -0.2,-0.2,  0.2,-0.2
**
*ELEMENT, TYPE=B31, ELSET=ES_PID_BAR_3
2060,   1533, 2813, 20001
2061,   2813, 2814, 20002
2062,   2814, 2815, 20003
2063,   2815, 2816, 20004
2064,   2820, 2821, 20005
2065,   2819, 2820, 20006
2066,   2818, 2819, 20007
2067,   1614, 2818, 20008
2068,   2825, 2826, 20009
2069,   2824, 2825, 20010
2070,   2823, 2824, 20011
2071,   1629, 2823, 20012
2072,   2830, 2831, 20013
2073,   2829, 2830, 20014
2074,   2828, 2829, 20015
2075,   1485, 2828, 20016
2076,   2835, 2836, 20017
2077,   2834, 2835, 20018
2078,   2833, 2834, 20019
2079,   1538, 2833, 20020
** ... 364 like lines cut
**
** elset ALL_B31_BAR contains 384 elements in 1 elsets
*ELSET, ELSET=ALL_B31_BAR
ES_PID_BAR_3,
**
** ---------------------------------------------------
** --- SHELL elements (isotropic, non-directional) ---
** ---------------------------------------------------
**
** this SHELL SECTION comes from PSHELL entries with MID = 1
**
*SHELL SECTION, ELSET=PSHELL_MID_1,
 MATERIAL=MAT_MID_1,
 SHELL THICKNESS=SHELL_THICKNESS_DIST
0.3,
**
*ELEMENT, TYPE=S4, ELSET=PSHELL_MID_1
**
883, 1015, 1016, 1038, 1037
884, 1016, 1017, 1039, 1038
885, 1017, 1018, 1040, 1039
886, 1018, 1019, 1041, 1040
887, 1019, 1020, 1042, 1041
888, 1020, 1021, 1043, 1042
889, 1021, 1022, 1044, 1043
890, 1022, 1023, 1045, 1044
891, 1023, 1024, 1046, 1045
892, 1024, 1025, 1047, 1046
893, 1025, 1026, 1048, 1047
894, 1026, 1027, 1049, 1048
895, 1027, 1028, 1050, 1049
896, 1028, 1029, 1051, 1050
897, 1029, 1030, 1052, 1051
898, 1030, 1031, 1053, 1052
899, 1031, 1032, 1054, 1053
900, 1037, 1038, 1060, 1059
901, 1038, 1039, 1061, 1060
902, 1039, 1040, 1062, 1061
** ... 389 like lines cut
**
** this SHELL SECTION comes from PSHELL entries with MID = 2
**
*SHELL SECTION, ELSET=PSHELL_MID_2,
 MATERIAL=MAT_MID_2,
 SHELL THICKNESS=SHELL_THICKNESS_DIST
0.16,
**
*ELEMENT, TYPE=S4, ELSET=PSHELL_MID_2
**
1292, 1642, 1643, 1648, 1647
1293, 1643, 1644, 1649, 1648
1294, 1644, 1645, 1650, 1649
1295, 1645, 1646, 1651, 1650
1296, 1647, 1648, 1653, 1652
1297, 1648, 1649, 1654, 1653
1298, 1649, 1650, 1655, 1654
1299, 1650, 1651, 1656, 1655
1300, 1197, 1658, 1663, 1662
1301, 1658, 1659, 1664, 1663
1302, 1659, 1660, 1665, 1664
1303, 1660, 1642, 1643, 1665
1304, 1662, 1663, 1668, 1198
1305, 1663, 1664, 1669, 1668
1306, 1664, 1665, 1670, 1669
1307, 1665, 1643, 1644, 1670
1308, 1644, 1673, 1678, 1645
1309, 1673, 1674, 1679, 1678
1310, 1674, 1675, 1680, 1679
1311, 1675, 1676, 1681, 1680
** ... 900 like lines cut
**
** this SHELL SECTION comes from PSHELL entries with MID = 4
**
*SHELL SECTION, ELSET=PSHELL_MID_4,
 MATERIAL=MAT_MID_4,
 SHELL THICKNESS=SHELL_THICKNESS_DIST
0.2,
**
*ELEMENT, TYPE=S4, ELSET=PSHELL_MID_4
**
2396, 3232, 3233, 3246, 3245
2397, 3233, 3234, 3247, 3246
2398, 3234, 3235, 3248, 3247
2399, 3235, 3236, 3249, 3248
2400, 3236, 3237, 3250, 3249
2401, 3237, 3238, 3251, 3250
2402, 3238, 3239, 3252, 3251
2403, 3239, 3240, 3253, 3252
2404, 3240, 3241, 3254, 3253
2405, 3241, 3242, 3255, 3254
2406, 3242, 3243, 3256, 3255
2407, 3243, 3244, 3257, 3256
2408, 3245, 3246, 3259, 3258
2409, 3246, 3247, 1533, 3259
2410, 3247, 3248, 3261, 1533
2411, 3248, 3249, 1602, 3261
2412, 3249, 3250, 3263, 1602
2413, 3250, 3251, 1605, 3263
2414, 3251, 3252, 3265, 1605
2415, 3252, 3253, 1608, 3265
** ... 6628 like lines cut
**
** elset ALL_SHELL_ISO contains 7977 elements in 3 elsets
*ELSET, ELSET=ALL_SHELL_ISO
PSHELL_MID_1,
PSHELL_MID_2,
PSHELL_MID_4,
**
** ---------------------------------------------------
** --- DISTRIBUTIONs for shell element thicknesses ---
** ---------------------------------------------------
**
*DISTRIBUTION TABLE, NAME=SHELL_THICKNESS_DIST_TABLE
LENGTH,
**
*DISTRIBUTION, LOCATION=ELEMENT,
 NAME=SHELL_THICKNESS_DIST,
 TABLE=SHELL_THICKNESS_DIST_TABLE
 , 1.
**
** QUAD4 element thicknesses
883, 0.3
884, 0.3
885, 0.3
886, 0.3
887, 0.3
888, 0.3
889, 0.3
890, 0.3
891, 0.3
892, 0.3
893, 0.3
894, 0.3
895, 0.3
896, 0.3
897, 0.3
898, 0.3
899, 0.3
900, 0.3
901, 0.3
902, 0.3
** ... 7957 like lines cut
**
** elset ALL_MASSIVE_ELEMENTS contains all 8361 elements that can have mass
*ELSET, ELSET=ALL_MASSIVE_ELEMENTS
ALL_SHELL_ISO,
ALL_B31_BAR,
** ---------------------------------------------------
** ------ STEP data for SUBCASE 1
** ---------------------------------------------------

*STEP
*STATIC
*NODE PRINT
U,
*BOUNDARY, OP=NEW
    1015, 1,3, 0.
    1032, 1,3, 0.
    1389, 1,3, 0.
    1406, 1,3, 0.
*CLOAD, OP=NEW
    3232, 1, 100.
    3245, 1, 100.
    3258, 1, 100.
    3271, 1, 100.
    3284, 1, 100.
    3297, 1, 100.
*END STEP





