$ NASTRAN input file created by the Patran 2010 input file translator on
$  September 17, 2010 at 17:58:31.
$ Direct Text Input for Nastran System Cell Section
$ Direct Text Input for File Management Section
$ Direct Text Input for Executive Control
$ Linear Static Analysis, Database
SOL 101
CEND
$ Direct Text Input for Global Case Control Data
ECHO = NONE
SUBCASE 1
$ Subcase name : Default
   SUBTITLE=Default
   SPC = 2
   LOAD = 2
   DISPLACEMENT(SORT1,REAL)=ALL
   SPCFORCES(SORT1,REAL)=ALL
   STRESS(SORT1,REAL,VONMISES,BILIN)=ALL
BEGIN BULK
$ Direct Text Input for Bulk Data
PARAM    POST    0
PARAM   PRTMAXIM YES
$ Elements and Element Properties for region : floors_prop
PSHELL   1       1      .1       1               1
$ Pset: "floors_prop" will be imported as: "pshell.1"
CQUAD4   157     1       64      239     242     65
CQUAD4   158     1       239     94      95      242
CQUAD4   159     1       65      242     245     66
CQUAD4   160     1       242     95      96      245
CQUAD4   165     1       55      257     260     56
CQUAD4   166     1       257     85      86      260
CQUAD4   167     1       56      260     263     57
CQUAD4   168     1       260     86      87      263
CQUAD4   427     1       93      497     660     275
CQUAD4   428     1       497     96      383     660
CQUAD4   429     1       96      539     662     383
CQUAD4   430     1       539     99      386     662
CQUAD4   431     1       99      542     664     386
CQUAD4   432     1       542     102     389     664
CQUAD4   433     1       275     660     500     123
CQUAD4   434     1       660     383     126     500
CQUAD4   435     1       383     662     545     126
CQUAD4   436     1       662     386     129     545
CQUAD4   437     1       386     664     548     129
CQUAD4   438     1       664     389     132     548
$ ... 5356 like lines cut
$ Elements and Element Properties for region : beams_prop
PBARL    2       2               BAR
        .5      .75
$ Pset: "beams_prop" will be imported as: "pbarl.2"
CBAR     1       2       1       2      1.       0.      0.
CBAR     2       2       2       3      1.       0.      0.
CBAR     3       2       4       5      1.       0.      0.
CBAR     4       2       5       6      1.       0.      0.
CBAR     5       2       7       8      1.       0.      0.
CBAR     6       2       8       9      1.       0.      0.
CBAR     7       2       10      11     1.       0.      0.
CBAR     8       2       11      12     1.       0.      0.
CBAR     9       2       13      14     1.       0.      0.
CBAR     10      2       14      15     1.       0.      0.
CBAR     11      2       16      17     1.       0.      0.
CBAR     12      2       17      18     1.       0.      0.
CBAR     13      2       19      20     1.       0.      0.
CBAR     14      2       20      21     1.       0.      0.
CBAR     15      2       22      23     1.       0.      0.
CBAR     16      2       23      24     1.       0.      0.
CBAR     17      2       25      26     1.       0.      0.
CBAR     18      2       26      27     1.       0.      0.
CBAR     19      2       28      29     1.       0.      0.
CBAR     20      2       29      30     1.       0.      0.
$ ... 3628 like lines cut
$ Referenced Material Records
$ Material Record : floors
$ Description of Material : Date: 17-Sep-10           Time: 17:40:12
MAT1     1      4.+10           .3      1800.
$ Material Record : beams
$ Description of Material : Date: 17-Sep-10           Time: 17:40:12
MAT1     2      5.+10           .3      2000.
$ Nodes of the Entire Model
GRID     1               0.      0.      0.
GRID     2               0.      0.     1.75
GRID     3               0.      0.     3.5
GRID     4              6.       0.      0.
GRID     5              6.       0.     1.75
GRID     6              6.       0.     3.5
GRID     7              12.      0.      0.
GRID     8              12.      0.     1.75
GRID     9              12.      0.     3.5
GRID     10             18.      0.      0.
GRID     11             18.      0.     1.75
GRID     12             18.      0.     3.5
GRID     13             24.      0.      0.
GRID     14             24.      0.     1.75
GRID     15             24.      0.     3.5
GRID     16             30.      0.      0.
GRID     17             30.      0.     1.75
GRID     18             30.      0.     3.5
GRID     19             36.      0.      0.
GRID     20             36.      0.     1.75
$ ... 8196 like lines cut
$ Loads for Load Case : Default
SPCADD   2       1
LOAD     2      1.      1.       1
$ Displacement Constraints of Load Set : fix
SPC1     1       123456  1       4       7       10      13      16
         19      22      25      28      31      34      37      40
         43      46      49      52      55      58      61      64
         67      70      73      76      79      82      85      88
         91      94      97      100     103     106     109     112
         115     118     121     124     127     130     133     136
         139     142     145     148     151     154     157     160
         163     166     169     172     175     178     181     184
         187     190     193     196     199     202     205     208
         211     214     217     220     223     226     232     239
         250     257
$ Nodal Forces of Load Set : rr
FORCE    1       1136    0      1000.    0.     -1.      0.
FORCE    1       1139    0      1000.    0.     -1.      0.
FORCE    1       1142    0      1000.    0.     -1.      0.
FORCE    1       1145    0      1000.    0.     -1.      0.
FORCE    1       1441    0      1000.    0.     -1.      0.
FORCE    1       1510    0      1000.    0.     -1.      0.
FORCE    1       1513    0      1000.    0.     -1.      0.
FORCE    1       2052    0      1000.    0.     -1.      0.
FORCE    1       2053    0      1000.    0.     -1.      0.
FORCE    1       2055    0      1000.    0.     -1.      0.
FORCE    1       2056    0      1000.    0.     -1.      0.
FORCE    1       2058    0      1000.    0.     -1.      0.
FORCE    1       2059    0      1000.    0.     -1.      0.
FORCE    1       2061    0      1000.    0.     -1.      0.
FORCE    1       2062    0      1000.    0.     -1.      0.
FORCE    1       2358    0      1000.    0.     -1.      0.
FORCE    1       2427    0      1000.    0.     -1.      0.
FORCE    1       2430    0      1000.    0.     -1.      0.
FORCE    1       2969    0      1000.    0.     -1.      0.
FORCE    1       2970    0      1000.    0.     -1.      0.
$ ... 229 like lines cut
$ Referenced Coordinate Frames
ENDDATA dd228c13
