
 ANSYS Academic Teaching Introductory              


 *-------------------------------------------------------------*
 |                                                             |
 |   W E L C O M E   T O   T H E   A N S Y S   P R O G R A M   |
 |                                                             |
 *-------------------------------------------------------------*




 ***************************************************************
 *                  ANSYS 12.0 LEGAL NOTICES                   *
 ***************************************************************
 *                                                             *
 * COPYRIGHT AND TRADEMARK INFORMATION                         *
 *                                                             *
 * Copyright 2009 SAS IP, Inc.  All rights reserved.           *
 * Unauthorized use, distribution or duplication is            *
 * prohibited.                                                 *
 *                                                             *
 * See the ANSYS, Inc. online documentation or the ANSYS, Inc. *
 * documentation CD for the complete Legal Notice.             *
 *                                                             *
 ***************************************************************
 *                                                             *
 * DISCLAIMER NOTICE                                           *
 *                                                             *
 * THIS ANSYS SOFTWARE PRODUCT AND PROGRAM DOCUMENTATION       *
 * EMBODY TRADE SECRETS AND CONFIDENTIAL AND PROPRIETARY       *
 * INFORMATION OF ANSYS, INC., ITS SUBSIDIARIES, OR LICENSORS. *
 * The software products and documentation are furnished by    *
 * ANSYS, Inc. or its subsidiaries under a software license    *
 * agreement that contains provisions concerning               *
 * non-disclosure, copying, length and nature of use,          *
 * compliance with exporting laws, warranties, disclaimers,    *
 * limitations of liability, and remedies, and other           *
 * provisions.  The software products and documentation may be *
 * used, disclosed, transferred, or copied only in accordance  *
 * with the terms and conditions of that software license      *
 * agreement.                                                  *
 *                                                             *
 * ANSYS, Inc. and ANSYS Europe, Ltd. are UL registered        *
 * ISO 9001:2000 Companies.                                    *
 *                                                             *
 ***************************************************************
 *                                                             *
 * U.S. GOVERNMENT RIGHTS                                      *
 *                                                             *
 * For U.S. Government users, except as specifically granted   *
 * by the ANSYS, Inc. software license agreement, the use,     *
 * duplication, or disclosure by the United States Government  *
 * is subject to restrictions stated in the ANSYS, Inc.        *
 * software license agreement and FAR 12.212 (for non-DOD      *
 * licenses).                                                  *
 *                                                             *
 ***************************************************************


 AFTER YOU HAVE READ, UNDERSTOOD, AND AGREED TO THE PREVIOUS NOTICES,
 PRESS <CR> OR <ENTER> TO CONTINUE


          *****  ANSYS COMMAND LINE ARGUMENTS  *****
  DESIGNXPLORER REQUESTED
  Input File Name              = /home/pbeaurepaire/workspace/COSSANXengine/examples/FE_models/ANSYS/Beam_3_points_bending/beam
  Output File Name             = /home/pbeaurepaire/workspace/COSSANXengine/examples/FE_models/ANSYS/Beam_3_points_bending/beam.out

 00207526          VERSION=LINUX IA32      RELEASE= 12.0.1   UP20090415
 CURRENT JOBNAME=file  11:20:52  MAR 11, 2011 CP=      0.210


 RUN SETUP PROCEDURE FROM FILE= /usr/site/ansys/12.0SP1/i386/v120/ansys/apdl/start120.ans

 /INPUT FILE= /usr/site/ansys/12.0SP1/i386/v120/ansys/apdl/start120.ans  LINE=       0

 BEGIN:
1

 ***** ANSYS - ENGINEERING ANALYSIS SYSTEM  RELEASE 12.0.1   *****
 ANSYS Academic Teaching Introductory              
 00207526          VERSION=LINUX IA32    11:20:52  MAR 11, 2011 CP=      0.240

                                                                               


          ***** ANSYS ANALYSIS DEFINITION (PREP7) *****

 KEYPOINT      1   X,Y,Z=   0.00000       0.00000       0.00000      IN CSYS=  0

 KEYPOINT      2   X,Y,Z=   100.000       0.00000       0.00000      IN CSYS=  0

 LINE CONNECTS KEYPOINTS      1     2
  LINE NO.=     1  KP1=      1  TAN1=   -1.0000   0.0000   0.0000
                   KP2=      2  TAN2=    1.0000   0.0000   0.0000

 ELEMENT TYPE      1 IS BEAM3        2-D ELASTIC BEAM            
  KEYOPT( 1- 6)=        0      0      0        0      0      0
  KEYOPT( 7-12)=        0      0      0        0      0      0
  KEYOPT(13-18)=        0      0      0        0      0      0

 CURRENT NODAL DOF SET IS  UX    UY    ROTZ
  TWO-DIMENSIONAL MODEL

 *** PROPERTY TEMPERATURE TABLE    NUM. TEMPS=  1 ***
 SLOC=   1     0.000000    

 PROPERTY TABLE EX    MAT=      1  NUM. POINTS=  1
 SLOC=   1     210000.0    

 PROPERTY TABLE PRXY  MAT=      1  NUM. POINTS=  1
 SLOC=   1    0.3000000    

 DEFAULT ELEMENT DIVISIONS PER LINE BASED ON ELEMENT SIZE =   2.50    

 GENERATE NODES AND ELEMENTS
       ON LINES         1  TO      1  IN STEPS OF      1

 NUMBER OF LINES MESHED     =       1
 MAXIMUM NODE NUMBER        =      41
 MAXIMUM ELEMENT NUMBER     =      40

 REAL CONSTANT SET       1  ITEMS   1 TO   6
    10.000       80.000       0.0000       0.0000       0.0000       0.0000    

 SPECIFIED NODAL LOAD FY   FOR SELECTED NODES       11 TO      11 BY       1
  REAL= -10.0000000       IMAG=  0.00000000    

 SPECIFIED CONSTRAINT UY   FOR SELECTED NODES       41 TO      41 BY       1
 REAL=  0.00000000       IMAG=  0.00000000    

 SPECIFIED CONSTRAINT UX   FOR SELECTED NODES        1 TO       1 BY       1
 REAL=  0.00000000       IMAG=  0.00000000    
 ADDITIONAL DOFS=  UY  


 ***** ROUTINE COMPLETED *****  CP =         0.250



 *****  ANSYS SOLUTION ROUTINE  *****


 PERFORM A STATIC ANALYSIS
  THIS WILL BE A NEW ANALYSIS

                       S O L U T I O N   O P T I O N S

   PROBLEM DIMENSIONALITY. . . . . . . . . . . . .2-D                  
   DEGREES OF FREEDOM. . . . . . UX   UY   ROTZ
   ANALYSIS TYPE . . . . . . . . . . . . . . . . .STATIC (STEADY-STATE)
   GLOBALLY ASSEMBLED MATRIX . . . . . . . . . . .SYMMETRIC  

                      L O A D   S T E P   O P T I O N S

   LOAD STEP NUMBER. . . . . . . . . . . . . . . .     1
   TIME AT END OF THE LOAD STEP. . . . . . . . . .  1.0000    
   NUMBER OF SUBSTEPS. . . . . . . . . . . . . . .     1
   STEP CHANGE BOUNDARY CONDITIONS . . . . . . . .    NO
   PRINT OUTPUT CONTROLS . . . . . . . . . . . . .NO PRINTOUT
   DATABASE OUTPUT CONTROLS. . . . . . . . . . . .ALL DATA WRITTEN
                                                  FOR THE LAST SUBSTEP


 *****  ANSYS SOLVE    COMMAND  *****

 *** NOTE ***                            CP =       0.250   TIME= 11:20:52
 There is no title defined for this analysis.                            
1

 ***** ANSYS - ENGINEERING ANALYSIS SYSTEM  RELEASE 12.0.1   *****
 ANSYS Academic Teaching Introductory              
 00207526          VERSION=LINUX IA32    11:20:52  MAR 11, 2011 CP=      0.250

                                                                               


                       S O L U T I O N   O P T I O N S

   PROBLEM DIMENSIONALITY. . . . . . . . . . . . .2-D                  
   DEGREES OF FREEDOM. . . . . . UX   UY   ROTZ
   ANALYSIS TYPE . . . . . . . . . . . . . . . . .STATIC (STEADY-STATE)
   GLOBALLY ASSEMBLED MATRIX . . . . . . . . . . .SYMMETRIC  

 *** WARNING ***                         CP =       0.250   TIME= 11:20:52
 Zero thickness element 1 may result in wrong thermal or bending stress. 
  Check real constant table 1.                                           

 *** NOTE ***                            CP =       0.250   TIME= 11:20:52
 Present time 0 is less than or equal to the previous time.  Time will   
 default to 1.                                                           

 *** NOTE ***                            CP =       0.250   TIME= 11:20:52
 The step data was checked and warning messages were found.              
  Please review output or errors file (                                  
 /home/pbeaurepaire/workspace/COSSANXengine/examples/FE_models/ANSYS/Bea 
 am_3_points_bending/file.err ) for these warning messages.              

                      L O A D   S T E P   O P T I O N S

   LOAD STEP NUMBER. . . . . . . . . . . . . . . .     1
   TIME AT END OF THE LOAD STEP. . . . . . . . . .  1.0000    
   NUMBER OF SUBSTEPS. . . . . . . . . . . . . . .     1
   STEP CHANGE BOUNDARY CONDITIONS . . . . . . . .    NO
   PRINT OUTPUT CONTROLS . . . . . . . . . . . . .NO PRINTOUT
   DATABASE OUTPUT CONTROLS. . . . . . . . . . . .ALL DATA WRITTEN
                                                  FOR THE LAST SUBSTEP


 SOLUTION MONITORING INFO IS WRITTEN TO FILE= file.mntr                                                                                                                                                                                                                                                           


 Range of element maximum matrix coefficients in global coordinates
 Maximum = 26880000 at element 40.                                       
 Minimum = 26880000 at element 39.                                       

   *** ELEMENT MATRIX FORMULATION TIMES
  TYPE  NUMBER   ENAME      TOTAL CP  AVE CP

     1      40  BEAM3         0.000   0.000000
 Time at end of element matrix formulation CP = 0.560000014.             

 SPARSE MATRIX DIRECT SOLVER.
  Number of equations =         120,    Maximum wavefront =      6
  Memory allocated for solver =                15.259 MB
  Memory required for in-core =                 0.031 MB
  Optimal memory required for out-of-core =     0.020 MB
  Minimum memory required for out-of-core =     0.019 MB

 *** NOTE ***                            CP =       0.580   TIME= 11:20:53
 The Sparse Matrix solver is currently running in the in-core memory     
 mode.  This memory mode uses the most amount of memory in order to      
 avoid using the hard drive as much as possible, which most often        
 results in the fastest solution time.  This mode is recommended if      
 enough physical memory is present to accommodate all of the solver      
 data.                                                                   
 Sparse solver maximum pivot= 43008000 at node 3 ROTZ.                   
 Sparse solver minimum pivot= 873.472635 at node 21 UY.                  
 Sparse solver minimum pivot in absolute value= 873.472635 at node 21    
 UY.                                                                     

   *** ELEMENT RESULT CALCULATION TIMES
  TYPE  NUMBER   ENAME      TOTAL CP  AVE CP

     1      40  BEAM3         0.010   0.000250

   *** NODAL LOAD CALCULATION TIMES
  TYPE  NUMBER   ENAME      TOTAL CP  AVE CP

     1      40  BEAM3         0.000   0.000000
 *** LOAD STEP     1   SUBSTEP     1  COMPLETED.    CUM ITER =      1
 *** TIME =   1.00000         TIME INC =   1.00000      NEW TRIANG MATRIX


 *** ANSYS BINARY FILE STATISTICS
  BUFFER SIZE USED= 16384
        0.063 MB WRITTEN ON ELEMENT MATRIX FILE: file.emat
        0.063 MB WRITTEN ON ELEMENT SAVED DATA FILE: file.esav
        0.063 MB WRITTEN ON ASSEMBLED MATRIX FILE: file.full
        0.125 MB WRITTEN ON RESULTS FILE: file.rst

 FINISH SOLUTION PROCESSING


 ***** ROUTINE COMPLETED *****  CP =         0.680


1

 ***** ANSYS - ENGINEERING ANALYSIS SYSTEM  RELEASE 12.0.1   *****
 ANSYS Academic Teaching Introductory              
 00207526          VERSION=LINUX IA32    11:20:53  MAR 11, 2011 CP=      0.730

                                                                               


          ***** ANSYS RESULTS INTERPRETATION (POST1) *****

 *** NOTE ***                            CP =       0.730   TIME= 11:20:53
 Reading results into the database (SET command) will update the current 
 displacement and force boundary conditions in the database with the     
 values from the results file for that load set.  Note that any          
 subsequent solutions will use these values unless action is taken to    
 either SAVE the current values or not overwrite them (/EXIT,NOSAVE).    

 PRINT U    NODAL SOLUTION PER NODE
1

 ***** ANSYS - ENGINEERING ANALYSIS SYSTEM  RELEASE 12.0.1   *****
 ANSYS Academic Teaching Introductory              
 00207526          VERSION=LINUX IA32    11:20:53  MAR 11, 2011 CP=      0.730

                                                                               

 
  ***** POST1 NODAL DEGREE OF FREEDOM LISTING *****                            
 
  LOAD STEP=     1  SUBSTEP=     1                                             
   TIME=    1.0000      LOAD CASE=   0                                         
 
  THE FOLLOWING DEGREE OF FREEDOM RESULTS ARE IN THE GLOBAL COORDINATE SYSTEM  
 
    NODE      UY    
       1   0.0000    
       2  0.51511E-03
       3 -0.73928E-03
       4 -0.14714E-02
       5 -0.21892E-02
       6 -0.28856E-02
       7 -0.35533E-02
       8 -0.41853E-02
       9 -0.47743E-02
      10 -0.53133E-02
      11 -0.57950E-02
      12 -0.62139E-02
      13 -0.65705E-02
      14 -0.68671E-02
      15 -0.71057E-02
      16 -0.72884E-02
      17 -0.74176E-02
      18 -0.74952E-02
      19 -0.75235E-02
      20 -0.75045E-02
      21 -0.74405E-02
      22 -0.73335E-02
      23 -0.71858E-02
      24 -0.69994E-02
      25 -0.67766E-02
      26 -0.65194E-02
      27 -0.62300E-02
      28 -0.59105E-02
      29 -0.55632E-02
      30 -0.51901E-02
      31 -0.47934E-02
      32 -0.43752E-02
      33 -0.39377E-02
      34 -0.34831E-02
      35 -0.30134E-02
      36 -0.25308E-02
      37 -0.20375E-02
1

 ***** ANSYS - ENGINEERING ANALYSIS SYSTEM  RELEASE 12.0.1   *****
 ANSYS Academic Teaching Introductory              
 00207526          VERSION=LINUX IA32    11:20:53  MAR 11, 2011 CP=      0.730

                                                                               

 
  ***** POST1 NODAL DEGREE OF FREEDOM LISTING *****                            
 
  LOAD STEP=     1  SUBSTEP=     1                                             
   TIME=    1.0000      LOAD CASE=   0                                         
 
  THE FOLLOWING DEGREE OF FREEDOM RESULTS ARE IN THE GLOBAL COORDINATE SYSTEM  
 
    NODE      UY    
      38 -0.15357E-02
      39 -0.10274E-02
      40 -0.51475E-03
      41   0.0000    

 MAXIMUM ABSOLUTE VALUES
 NODE         19
 VALUE  -0.75235E-02

 EXIT THE ANSYS POST1 DATABASE PROCESSOR


 ***** ROUTINE COMPLETED *****  CP =         0.730



 ***** END OF INPUT ENCOUNTERED *****

 PURGE ALL SOLUTION AND POST DATA
 SAVE ALL MODEL DATA

 ALL CURRENT ANSYS DATA WRITTEN TO FILE NAME= file.db
  FOR POSSIBLE RESUME FROM THIS POINT


 NUMBER OF WARNING MESSAGES ENCOUNTERED=          1
 NUMBER OF ERROR   MESSAGES ENCOUNTERED=          0

+--------------------- A N S Y S   S T A T I S T I C S ------------------------+

Release: 12.0.1     UP20090415   Version: LINUX IA32  
Date Run: 03/11/2011   Time: 11:20

Number of cores:   2 (Shared Memory Parallel)

Job Name: file
Input File: beam
Working Directory: /home/pbeaurepaire/workspace/COSSANXengine/examples/FE_models/ANSYS/Beam_3_points_bending

Elapsed time spent pre-processing model (/PREP7)  :      0.0 seconds
Elapsed time spent solution - preprocessing       :      0.0 seconds
Elapsed time spent computing solution             :      1.0 seconds
Elapsed time spent solution - postprocessing      :      0.0 seconds
Elapsed time spent post-processing model (/POST1) :      0.0 seconds

Equation solver computational rate                :      1.0 Mflops

+------------------ E N D   A N S Y S   S T A T I S T I C S -------------------+


 *---------------------------------------------------------------------------*
 |                                                                           |
 |                            ANSYS RUN COMPLETED                            |
 |                                                                           |
 |---------------------------------------------------------------------------|
 |                                                                           |
 |            Release 12.0.1         UP20090415         LINUX IA32           |
 |                                                                           |
 |---------------------------------------------------------------------------|
 |                                                                           |
 |   Maximum Scratch Memory Used       =     5153432 Words       19.659 MB   |
 |                                                                           |
 |---------------------------------------------------------------------------|
 |                                                                           |
 |        CP Time      (sec) =          0.750       Time  =  11:20:53        |
 |        Elapsed Time (sec) =          3.000       Date  =  03/11/2011      |
 |                                                                           |
 *---------------------------------------------------------------------------*
