$ NASTRAN input file created by the Patran 2010 input file translator on
$  September 17, 2010 at 17:55:34.
$ Direct Text Input for Nastran System Cell Section
$ Direct Text Input for File Management Section
$ Direct Text Input for Executive Control
$ Linear Static Analysis, Database
SOL 101
CEND
$ Direct Text Input for Global Case Control Data
TITLE = MSC.Nastran job created on 26-Sep-07 at 17:36:10
ECHO = NONE
SUBCASE 1
$ Subcase name : Default
   SUBTITLE=Default
   SPC = 2
   LOAD = 2
   DISPLACEMENT(SORT1,REAL)=ALL
   SPCFORCES(SORT1,REAL)=ALL
   STRESS(SORT1,REAL,VONMISES,BILIN)=ALL
BEGIN BULK
$ Direct Text Input for Bulk Data
PARAM    POST    0
PARAM   PRTMAXIM YES
$ Elements and Element Properties for region : found
PSHELL   1       1      .5       1               1
$ Pset: "found" will be imported as: "pshell.1"
CQUAD4   1       1       1       2       19      18
CQUAD4   2       1       2       3       20      19
CQUAD4   3       1       3       4       21      20
CQUAD4   4       1       4       5       22      21
CQUAD4   5       1       5       6       23      22
CQUAD4   6       1       6       7       24      23
CQUAD4   7       1       7       8       25      24
CQUAD4   8       1       8       9       26      25
CQUAD4   9       1       9       10      27      26
CQUAD4   10      1       10      11      28      27
CQUAD4   11      1       11      12      29      28
CQUAD4   12      1       12      13      30      29
CQUAD4   13      1       13      14      31      30
CQUAD4   14      1       14      15      32      31
CQUAD4   15      1       15      16      33      32
CQUAD4   16      1       16      17      34      33
CQUAD4   17      1       18      19      36      35
CQUAD4   18      1       19      20      37      36
CQUAD4   19      1       20      21      38      37
CQUAD4   20      1       21      22      39      38
$ ... 236 like lines cut
$ Elements and Element Properties for region : cellws
PSHELL   2       2      .3       2               2
$ Pset: "cellws" will be imported as: "pshell.2"
CQUAD4   1124    2       273     291     293     274
CQUAD4   1125    2       274     293     295     275
CQUAD4   1126    2       275     295     297     276
CQUAD4   1127    2       276     297     299     277
CQUAD4   1128    2       277     299     301     278
CQUAD4   1129    2       278     301     303     279
CQUAD4   1130    2       279     303     305     280
CQUAD4   1131    2       280     305     307     281
CQUAD4   1132    2       281     307     309     282
CQUAD4   1133    2       282     309     311     283
CQUAD4   1134    2       283     311     313     284
CQUAD4   1135    2       284     313     315     285
CQUAD4   1136    2       285     315     317     286
CQUAD4   1137    2       286     317     319     287
CQUAD4   1138    2       287     319     321     288
CQUAD4   1139    2       288     321     323     289
CQUAD4   1140    2       1       18      342     341
CQUAD4   1141    2       18      35      343     342
CQUAD4   1142    2       35      52      344     343
CQUAD4   1143    2       52      69      345     344
$ ... 44 like lines cut
$ Elements and Element Properties for region : floor
PSHELL   3       3      .2       3               3
$ Pset: "floor" will be imported as: "pshell.3"
CQUAD4   1604    3       341     395     1386    342
CQUAD4   1605    3       395     397     1387    1386
CQUAD4   1606    3       397     399     1388    1387
CQUAD4   1607    3       399     401     1389    1388
CQUAD4   1608    3       401     403     1390    1389
CQUAD4   1609    3       403     405     1391    1390
CQUAD4   1610    3       405     407     1392    1391
CQUAD4   1611    3       407     409     1393    1392
CQUAD4   1612    3       409     411     1394    1393
CQUAD4   1613    3       411     413     1395    1394
CQUAD4   1614    3       413     415     1396    1395
CQUAD4   1615    3       415     417     1397    1396
CQUAD4   1616    3       417     419     1398    1397
CQUAD4   1617    3       419     421     1399    1398
CQUAD4   1618    3       421     423     1400    1399
CQUAD4   1619    3       423     375     376     1400
CQUAD4   1620    3       342     1386    1403    343
CQUAD4   1621    3       1386    1387    1404    1403
CQUAD4   1622    3       1387    1388    1405    1404
CQUAD4   1623    3       1388    1389    479     1405
$ ... 3308 like lines cut
$ Elements and Element Properties for region : innws
PSHELL   4       4      .6       4               4
$ Pset: "innws" will be imported as: "pshell.4"
CQUAD4   1188    4       215     425     427     216
CQUAD4   1189    4       216     427     429     217
CQUAD4   1190    4       217     429     431     218
CQUAD4   1191    4       218     431     433     219
CQUAD4   1192    4       183     200     440     439
CQUAD4   1193    4       200     217     429     440
CQUAD4   1194    4       217     234     442     429
CQUAD4   1195    4       234     251     443     442
CQUAD4   1196    4       207     445     447     208
CQUAD4   1197    4       208     447     449     209
CQUAD4   1198    4       209     449     451     210
CQUAD4   1199    4       210     451     453     211
CQUAD4   1200    4       175     192     460     459
CQUAD4   1201    4       192     209     449     460
CQUAD4   1202    4       209     226     462     449
CQUAD4   1203    4       226     243     463     462
CQUAD4   1204    4       71      465     467     72
CQUAD4   1205    4       72      467     469     73
CQUAD4   1206    4       73      469     471     74
CQUAD4   1207    4       74      471     473     75
$ ... 396 like lines cut
$ Elements and Element Properties for region : beams
PBARL    5       5               BAR
        .7      .8
$ Pset: "beams" will be imported as: "pbarl.5"
CBAR     4932    5       401     1389    0.      0.     1.
CBAR     4933    5       1389    479     0.      0.     1.
CBAR     4934    5       463     1627    0.      0.     1.
CBAR     4935    5       1627    299     0.      0.     1.
CBAR     4936    5       443     1635    0.      0.     1.
CBAR     4937    5       1635    315     0.      0.     1.
CBAR     4938    5       417     1397    0.      0.     1.
CBAR     4939    5       1397    499     0.      0.     1.
CBAR     4940    5       409     1393    0.      0.     1.
CBAR     4941    5       1393    1410    0.      0.     1.
CBAR     4942    5       1410    1427    0.      0.     1.
CBAR     4943    5       1427    1444    0.      0.     1.
CBAR     4944    5       1444    1461    0.      0.     1.
CBAR     4945    5       1461    1478    0.      0.     1.
CBAR     4946    5       1478    1495    0.      0.     1.
CBAR     4947    5       1495    1512    0.      0.     1.
CBAR     4948    5       1512    1529    0.      0.     1.
CBAR     4949    5       1529    1546    0.      0.     1.
CBAR     4950    5       1546    1563    0.      0.     1.
CBAR     4951    5       1563    1580    0.      0.     1.
$ ... 812 like lines cut
$ Referenced Material Records
$ Material Record : found
$ Description of Material : Date: 26-Sep-07           Time: 17:27:09
MAT1     1      2.8+10          .3      2400.
$ Material Record : cellar
$ Description of Material : Date: 26-Sep-07           Time: 17:27:09
MAT1     2      2.8+10          .3      2400.
$ Material Record : floor
$ Description of Material : Date: 26-Sep-07           Time: 17:27:09
MAT1     3      3.2+10          .3      3750.
$ Material Record : inner
$ Description of Material : Date: 26-Sep-07           Time: 17:27:09
MAT1     4      3.2+10          .3      2500.
$ Material Record : beam
$ Description of Material : Date: 26-Sep-07           Time: 17:27:09
MAT1     5      3.2+10          .3      2500.
$ Nodes of the Entire Model
GRID     1              -12.    -12.    -4.
GRID     2              -10.5   -12.    -4.
GRID     3              -9.     -12.    -4.
GRID     4              -7.5    -12.    -4.
GRID     5              -6.     -12.    -4.
GRID     6              -4.5    -12.    -4.
GRID     7              -3.     -12.    -4.
GRID     8              -1.5    -12.    -4.
GRID     9               0.     -12.    -4.
GRID     10             1.5     -12.    -4.
GRID     11             3.      -12.    -4.
GRID     12             4.5     -12.    -4.
GRID     13             6.      -12.    -4.
GRID     14             7.5     -12.    -4.
GRID     15             9.      -12.    -4.
GRID     16             10.5    -12.    -4.
GRID     17             12.     -12.    -4.
GRID     18             -12.    -10.5   -4.
GRID     19             -10.5   -10.5   -4.
GRID     20             -9.     -10.5   -4.
$ ... 4026 like lines cut
$ Loads for Load Case : Default
SPCADD   2       1
LOAD     2      1.      1.       1      1.       3
$ Displacement Constraints of Load Set : fix
SPC1     1       123456  1       THRU    289
$ Nodal Forces of Load Set : load
FORCE    3       1657    0      10000.  1.       0.      0.
FORCE    3       1674    0      10000.  1.       0.      0.
FORCE    3       1691    0      10000.  1.       0.      0.
FORCE    3       1708    0      10000.  1.       0.      0.
FORCE    3       1725    0      10000.  1.       0.      0.
FORCE    3       1742    0      10000.  1.       0.      0.
FORCE    3       1759    0      10000.  1.       0.      0.
FORCE    3       1776    0      10000.  1.       0.      0.
FORCE    3       1793    0      10000.  1.       0.      0.
FORCE    3       1810    0      10000.  1.       0.      0.
FORCE    3       1827    0      10000.  1.       0.      0.
FORCE    3       1844    0      10000.  1.       0.      0.
FORCE    3       1861    0      10000.  1.       0.      0.
FORCE    3       1878    0      10000.  1.       0.      0.
FORCE    3       1895    0      10000.  1.       0.      0.
FORCE    3       1912    0      10000.  1.       0.      0.
FORCE    3       1929    0      10000.  1.       0.      0.
FORCE    3       1946    0      10000.  1.       0.      0.
FORCE    3       1963    0      10000.  1.       0.      0.
FORCE    3       1980    0      10000.  1.       0.      0.
$ ... 184 like lines cut
$ Gravity Loading of Load Set : gravity
GRAV     1       0      9.81     0.      0.     -1.
$ Referenced Coordinate Frames
ENDDATA 6b2f4482
